<routes xmlns:xsi="http://www.w3.org/2001/XMLSchema-instance" xsi:noNamespaceSchemaLocation="http://sumo.dlr.de/xsd/routes_file.xsd">
    <vType id="pas_east__passenger" vClass="passenger" />
    <trip id="pas_east_0" depart="0.00" from="e_t" to="t_w" departLane="best" departSpeed="max" departPos="base" type="pas_east__passenger" />
    <trip id="pas_east_1" depart="5.63" from="e_t" to="t_n" departLane="best" departSpeed="max" departPos="base" type="pas_east__passenger" />
    <trip id="pas_east_2" depart="11.27" from="e_t" to="t_s" departLane="best" departSpeed="max" departPos="base" type="pas_east__passenger" />
    <trip id="pas_east_3" depart="16.90" from="e_t" to="t_w" departLane="best" departSpeed="max" departPos="base" type="pas_east__passenger" />
    <trip id="pas_east_4" depart="22.54" from="e_t" to="t_w" departLane="best" departSpeed="max" departPos="base" type="pas_east__passenger" />
    <trip id="pas_east_5" depart="28.17" from="e_t" to="t_w" departLane="best" departSpeed="max" departPos="base" type="pas_east__passenger" />
    <trip id="pas_east_6" depart="33.80" from="e_t" to="t_w" departLane="best" departSpeed="max" departPos="base" type="pas_east__passenger" />
    <trip id="pas_east_7" depart="39.44" from="e_t" to="t_n" departLane="best" departSpeed="max" departPos="base" type="pas_east__passenger" />
    <trip id="pas_east_8" depart="45.07" from="e_t" to="t_w" departLane="best" departSpeed="max" departPos="base" type="pas_east__passenger" />
    <trip id="pas_east_9" depart="50.70" from="e_t" to="t_w" departLane="best" departSpeed="max" departPos="base" type="pas_east__passenger" />
    <trip id="pas_east_10" depart="56.34" from="e_t" to="t_s" departLane="best" departSpeed="max" departPos="base" type="pas_east__passenger" />
    <trip id="pas_east_11" depart="61.97" from="e_t" to="t_w" departLane="best" departSpeed="max" departPos="base" type="pas_east__passenger" />
    <trip id="pas_east_12" depart="67.61" from="e_t" to="t_n" departLane="best" departSpeed="max" departPos="base" type="pas_east__passenger" />
    <trip id="pas_east_13" depart="73.24" from="e_t" to="t_n" departLane="best" departSpeed="max" departPos="base" type="pas_east__passenger" />
    <trip id="pas_east_14" depart="78.87" from="e_t" to="t_s" departLane="best" departSpeed="max" departPos="base" type="pas_east__passenger" />
    <trip id="pas_east_15" depart="84.51" from="e_t" to="t_n" departLane="best" departSpeed="max" departPos="base" type="pas_east__passenger" />
    <trip id="pas_east_16" depart="90.14" from="e_t" to="t_w" departLane="best" departSpeed="max" departPos="base" type="pas_east__passenger" />
    <trip id="pas_east_17" depart="95.77" from="e_t" to="t_n" departLane="best" departSpeed="max" departPos="base" type="pas_east__passenger" />
    <trip id="pas_east_18" depart="101.41" from="e_t" to="t_n" departLane="best" departSpeed="max" departPos="base" type="pas_east__passenger" />
    <trip id="pas_east_19" depart="107.04" from="e_t" to="t_w" departLane="best" departSpeed="max" departPos="base" type="pas_east__passenger" />
    <trip id="pas_east_20" depart="112.68" from="e_t" to="t_n" departLane="best" departSpeed="max" departPos="base" type="pas_east__passenger" />
    <trip id="pas_east_21" depart="118.31" from="e_t" to="t_w" departLane="best" departSpeed="max" departPos="base" type="pas_east__passenger" />
    <trip id="pas_east_22" depart="123.94" from="e_t" to="t_n" departLane="best" departSpeed="max" departPos="base" type="pas_east__passenger" />
    <trip id="pas_east_23" depart="129.58" from="e_t" to="t_n" departLane="best" departSpeed="max" departPos="base" type="pas_east__passenger" />
    <trip id="pas_east_24" depart="135.21" from="e_t" to="t_w" departLane="best" departSpeed="max" departPos="base" type="pas_east__passenger" />
    <trip id="pas_east_25" depart="140.85" from="e_t" to="t_n" departLane="best" departSpeed="max" departPos="base" type="pas_east__passenger" />
    <trip id="pas_east_26" depart="146.48" from="e_t" to="t_n" departLane="best" departSpeed="max" departPos="base" type="pas_east__passenger" />
    <trip id="pas_east_27" depart="152.11" from="e_t" to="t_s" departLane="best" departSpeed="max" departPos="base" type="pas_east__passenger" />
    <trip id="pas_east_28" depart="157.75" from="e_t" to="t_n" departLane="best" departSpeed="max" departPos="base" type="pas_east__passenger" />
    <trip id="pas_east_29" depart="163.38" from="e_t" to="t_s" departLane="best" departSpeed="max" departPos="base" type="pas_east__passenger" />
    <trip id="pas_east_30" depart="169.01" from="e_t" to="t_s" departLane="best" departSpeed="max" departPos="base" type="pas_east__passenger" />
    <trip id="pas_east_31" depart="174.65" from="e_t" to="t_n" departLane="best" departSpeed="max" departPos="base" type="pas_east__passenger" />
    <trip id="pas_east_32" depart="180.28" from="e_t" to="t_w" departLane="best" departSpeed="max" departPos="base" type="pas_east__passenger" />
    <trip id="pas_east_33" depart="185.92" from="e_t" to="t_n" departLane="best" departSpeed="max" departPos="base" type="pas_east__passenger" />
    <trip id="pas_east_34" depart="191.55" from="e_t" to="t_w" departLane="best" departSpeed="max" departPos="base" type="pas_east__passenger" />
    <trip id="pas_east_35" depart="197.18" from="e_t" to="t_s" departLane="best" departSpeed="max" departPos="base" type="pas_east__passenger" />
    <trip id="pas_east_36" depart="202.82" from="e_t" to="t_w" departLane="best" departSpeed="max" departPos="base" type="pas_east__passenger" />
    <trip id="pas_east_37" depart="208.45" from="e_t" to="t_s" departLane="best" departSpeed="max" departPos="base" type="pas_east__passenger" />
    <trip id="pas_east_38" depart="214.08" from="e_t" to="t_s" departLane="best" departSpeed="max" departPos="base" type="pas_east__passenger" />
    <trip id="pas_east_39" depart="219.72" from="e_t" to="t_s" departLane="best" departSpeed="max" departPos="base" type="pas_east__passenger" />
    <trip id="pas_east_40" depart="225.35" from="e_t" to="t_w" departLane="best" departSpeed="max" departPos="base" type="pas_east__passenger" />
    <trip id="pas_east_41" depart="230.99" from="e_t" to="t_w" departLane="best" departSpeed="max" departPos="base" type="pas_east__passenger" />
    <trip id="pas_east_42" depart="236.62" from="e_t" to="t_n" departLane="best" departSpeed="max" departPos="base" type="pas_east__passenger" />
    <trip id="pas_east_43" depart="242.25" from="e_t" to="t_s" departLane="best" departSpeed="max" departPos="base" type="pas_east__passenger" />
    <trip id="pas_east_44" depart="247.89" from="e_t" to="t_w" departLane="best" departSpeed="max" departPos="base" type="pas_east__passenger" />
    <trip id="pas_east_45" depart="253.52" from="e_t" to="t_n" departLane="best" departSpeed="max" departPos="base" type="pas_east__passenger" />
    <trip id="pas_east_46" depart="259.15" from="e_t" to="t_n" departLane="best" departSpeed="max" departPos="base" type="pas_east__passenger" />
    <trip id="pas_east_47" depart="264.79" from="e_t" to="t_w" departLane="best" departSpeed="max" departPos="base" type="pas_east__passenger" />
    <trip id="pas_east_48" depart="270.42" from="e_t" to="t_s" departLane="best" departSpeed="max" departPos="base" type="pas_east__passenger" />
    <trip id="pas_east_49" depart="276.06" from="e_t" to="t_w" departLane="best" departSpeed="max" departPos="base" type="pas_east__passenger" />
    <trip id="pas_east_50" depart="281.69" from="e_t" to="t_n" departLane="best" departSpeed="max" departPos="base" type="pas_east__passenger" />
    <trip id="pas_east_51" depart="287.32" from="e_t" to="t_s" departLane="best" departSpeed="max" departPos="base" type="pas_east__passenger" />
    <trip id="pas_east_52" depart="292.96" from="e_t" to="t_n" departLane="best" departSpeed="max" departPos="base" type="pas_east__passenger" />
    <trip id="pas_east_53" depart="298.59" from="e_t" to="t_s" departLane="best" departSpeed="max" departPos="base" type="pas_east__passenger" />
    <trip id="pas_east_54" depart="304.23" from="e_t" to="t_n" departLane="best" departSpeed="max" departPos="base" type="pas_east__passenger" />
    <trip id="pas_east_55" depart="309.86" from="e_t" to="t_n" departLane="best" departSpeed="max" departPos="base" type="pas_east__passenger" />
    <trip id="pas_east_56" depart="315.49" from="e_t" to="t_n" departLane="best" departSpeed="max" departPos="base" type="pas_east__passenger" />
    <trip id="pas_east_57" depart="321.13" from="e_t" to="t_w" departLane="best" departSpeed="max" departPos="base" type="pas_east__passenger" />
    <trip id="pas_east_58" depart="326.76" from="e_t" to="t_s" departLane="best" departSpeed="max" departPos="base" type="pas_east__passenger" />
    <trip id="pas_east_59" depart="332.39" from="e_t" to="t_s" departLane="best" departSpeed="max" departPos="base" type="pas_east__passenger" />
    <trip id="pas_east_60" depart="338.03" from="e_t" to="t_s" departLane="best" departSpeed="max" departPos="base" type="pas_east__passenger" />
    <trip id="pas_east_61" depart="343.66" from="e_t" to="t_s" departLane="best" departSpeed="max" departPos="base" type="pas_east__passenger" />
    <trip id="pas_east_62" depart="349.30" from="e_t" to="t_w" departLane="best" departSpeed="max" departPos="base" type="pas_east__passenger" />
    <trip id="pas_east_63" depart="354.93" from="e_t" to="t_w" departLane="best" departSpeed="max" departPos="base" type="pas_east__passenger" />
    <trip id="pas_east_64" depart="360.56" from="e_t" to="t_n" departLane="best" departSpeed="max" departPos="base" type="pas_east__passenger" />
    <trip id="pas_east_65" depart="366.20" from="e_t" to="t_n" departLane="best" departSpeed="max" departPos="base" type="pas_east__passenger" />
    <trip id="pas_east_66" depart="371.83" from="e_t" to="t_s" departLane="best" departSpeed="max" departPos="base" type="pas_east__passenger" />
    <trip id="pas_east_67" depart="377.46" from="e_t" to="t_w" departLane="best" departSpeed="max" departPos="base" type="pas_east__passenger" />
    <trip id="pas_east_68" depart="383.10" from="e_t" to="t_s" departLane="best" departSpeed="max" departPos="base" type="pas_east__passenger" />
    <trip id="pas_east_69" depart="388.73" from="e_t" to="t_n" departLane="best" departSpeed="max" departPos="base" type="pas_east__passenger" />
    <trip id="pas_east_70" depart="394.37" from="e_t" to="t_s" departLane="best" departSpeed="max" departPos="base" type="pas_east__passenger" />
    <trip id="pas_east_71" depart="400.00" from="e_t" to="t_n" departLane="best" departSpeed="max" departPos="base" type="pas_east__passenger" />
    <trip id="pas_east_72" depart="405.63" from="e_t" to="t_w" departLane="best" departSpeed="max" departPos="base" type="pas_east__passenger" />
    <trip id="pas_east_73" depart="411.27" from="e_t" to="t_s" departLane="best" departSpeed="max" departPos="base" type="pas_east__passenger" />
    <trip id="pas_east_74" depart="416.90" from="e_t" to="t_s" departLane="best" departSpeed="max" departPos="base" type="pas_east__passenger" />
    <trip id="pas_east_75" depart="422.54" from="e_t" to="t_w" departLane="best" departSpeed="max" departPos="base" type="pas_east__passenger" />
    <trip id="pas_east_76" depart="428.17" from="e_t" to="t_w" departLane="best" departSpeed="max" departPos="base" type="pas_east__passenger" />
    <trip id="pas_east_77" depart="433.80" from="e_t" to="t_w" departLane="best" departSpeed="max" departPos="base" type="pas_east__passenger" />
    <trip id="pas_east_78" depart="439.44" from="e_t" to="t_n" departLane="best" departSpeed="max" departPos="base" type="pas_east__passenger" />
    <trip id="pas_east_79" depart="445.07" from="e_t" to="t_n" departLane="best" departSpeed="max" departPos="base" type="pas_east__passenger" />
    <trip id="pas_east_80" depart="450.70" from="e_t" to="t_w" departLane="best" departSpeed="max" departPos="base" type="pas_east__passenger" />
    <trip id="pas_east_81" depart="456.34" from="e_t" to="t_w" departLane="best" departSpeed="max" departPos="base" type="pas_east__passenger" />
    <trip id="pas_east_82" depart="461.97" from="e_t" to="t_n" departLane="best" departSpeed="max" departPos="base" type="pas_east__passenger" />
    <trip id="pas_east_83" depart="467.61" from="e_t" to="t_n" departLane="best" departSpeed="max" departPos="base" type="pas_east__passenger" />
    <trip id="pas_east_84" depart="473.24" from="e_t" to="t_w" departLane="best" departSpeed="max" departPos="base" type="pas_east__passenger" />
    <trip id="pas_east_85" depart="478.87" from="e_t" to="t_n" departLane="best" departSpeed="max" departPos="base" type="pas_east__passenger" />
    <trip id="pas_east_86" depart="484.51" from="e_t" to="t_w" departLane="best" departSpeed="max" departPos="base" type="pas_east__passenger" />
    <trip id="pas_east_87" depart="490.14" from="e_t" to="t_w" departLane="best" departSpeed="max" departPos="base" type="pas_east__passenger" />
    <trip id="pas_east_88" depart="495.77" from="e_t" to="t_n" departLane="best" departSpeed="max" departPos="base" type="pas_east__passenger" />
    <trip id="pas_east_89" depart="501.41" from="e_t" to="t_w" departLane="best" departSpeed="max" departPos="base" type="pas_east__passenger" />
    <trip id="pas_east_90" depart="507.04" from="e_t" to="t_n" departLane="best" departSpeed="max" departPos="base" type="pas_east__passenger" />
    <trip id="pas_east_91" depart="512.68" from="e_t" to="t_w" departLane="best" departSpeed="max" departPos="base" type="pas_east__passenger" />
    <trip id="pas_east_92" depart="518.31" from="e_t" to="t_n" departLane="best" departSpeed="max" departPos="base" type="pas_east__passenger" />
    <trip id="pas_east_93" depart="523.94" from="e_t" to="t_w" departLane="best" departSpeed="max" departPos="base" type="pas_east__passenger" />
    <trip id="pas_east_94" depart="529.58" from="e_t" to="t_n" departLane="best" departSpeed="max" departPos="base" type="pas_east__passenger" />
    <trip id="pas_east_95" depart="535.21" from="e_t" to="t_w" departLane="best" departSpeed="max" departPos="base" type="pas_east__passenger" />
    <trip id="pas_east_96" depart="540.85" from="e_t" to="t_s" departLane="best" departSpeed="max" departPos="base" type="pas_east__passenger" />
    <trip id="pas_east_97" depart="546.48" from="e_t" to="t_n" departLane="best" departSpeed="max" departPos="base" type="pas_east__passenger" />
    <trip id="pas_east_98" depart="552.11" from="e_t" to="t_n" departLane="best" departSpeed="max" departPos="base" type="pas_east__passenger" />
    <trip id="pas_east_99" depart="557.75" from="e_t" to="t_n" departLane="best" departSpeed="max" departPos="base" type="pas_east__passenger" />
    <trip id="pas_east_100" depart="563.38" from="e_t" to="t_n" departLane="best" departSpeed="max" departPos="base" type="pas_east__passenger" />
    <trip id="pas_east_101" depart="569.01" from="e_t" to="t_n" departLane="best" departSpeed="max" departPos="base" type="pas_east__passenger" />
    <trip id="pas_east_102" depart="574.65" from="e_t" to="t_w" departLane="best" departSpeed="max" departPos="base" type="pas_east__passenger" />
    <trip id="pas_east_103" depart="580.28" from="e_t" to="t_w" departLane="best" departSpeed="max" departPos="base" type="pas_east__passenger" />
    <trip id="pas_east_104" depart="585.92" from="e_t" to="t_s" departLane="best" departSpeed="max" departPos="base" type="pas_east__passenger" />
    <trip id="pas_east_105" depart="591.55" from="e_t" to="t_n" departLane="best" departSpeed="max" departPos="base" type="pas_east__passenger" />
    <trip id="pas_east_106" depart="597.18" from="e_t" to="t_s" departLane="best" departSpeed="max" departPos="base" type="pas_east__passenger" />
    <trip id="pas_east_107" depart="602.82" from="e_t" to="t_s" departLane="best" departSpeed="max" departPos="base" type="pas_east__passenger" />
    <trip id="pas_east_108" depart="608.45" from="e_t" to="t_w" departLane="best" departSpeed="max" departPos="base" type="pas_east__passenger" />
    <trip id="pas_east_109" depart="614.08" from="e_t" to="t_s" departLane="best" departSpeed="max" departPos="base" type="pas_east__passenger" />
    <trip id="pas_east_110" depart="619.72" from="e_t" to="t_s" departLane="best" departSpeed="max" departPos="base" type="pas_east__passenger" />
    <trip id="pas_east_111" depart="625.35" from="e_t" to="t_n" departLane="best" departSpeed="max" departPos="base" type="pas_east__passenger" />
    <trip id="pas_east_112" depart="630.99" from="e_t" to="t_n" departLane="best" departSpeed="max" departPos="base" type="pas_east__passenger" />
    <trip id="pas_east_113" depart="636.62" from="e_t" to="t_s" departLane="best" departSpeed="max" departPos="base" type="pas_east__passenger" />
    <trip id="pas_east_114" depart="642.25" from="e_t" to="t_n" departLane="best" departSpeed="max" departPos="base" type="pas_east__passenger" />
    <trip id="pas_east_115" depart="647.89" from="e_t" to="t_w" departLane="best" departSpeed="max" departPos="base" type="pas_east__passenger" />
    <trip id="pas_east_116" depart="653.52" from="e_t" to="t_n" departLane="best" departSpeed="max" departPos="base" type="pas_east__passenger" />
    <trip id="pas_east_117" depart="659.15" from="e_t" to="t_w" departLane="best" departSpeed="max" departPos="base" type="pas_east__passenger" />
    <trip id="pas_east_118" depart="664.79" from="e_t" to="t_n" departLane="best" departSpeed="max" departPos="base" type="pas_east__passenger" />
    <trip id="pas_east_119" depart="670.42" from="e_t" to="t_w" departLane="best" departSpeed="max" departPos="base" type="pas_east__passenger" />
    <trip id="pas_east_120" depart="676.06" from="e_t" to="t_n" departLane="best" departSpeed="max" departPos="base" type="pas_east__passenger" />
    <trip id="pas_east_121" depart="681.69" from="e_t" to="t_w" departLane="best" departSpeed="max" departPos="base" type="pas_east__passenger" />
    <trip id="pas_east_122" depart="687.32" from="e_t" to="t_w" departLane="best" departSpeed="max" departPos="base" type="pas_east__passenger" />
    <trip id="pas_east_123" depart="692.96" from="e_t" to="t_n" departLane="best" departSpeed="max" departPos="base" type="pas_east__passenger" />
    <trip id="pas_east_124" depart="698.59" from="e_t" to="t_s" departLane="best" departSpeed="max" departPos="base" type="pas_east__passenger" />
    <trip id="pas_east_125" depart="704.23" from="e_t" to="t_s" departLane="best" departSpeed="max" departPos="base" type="pas_east__passenger" />
    <trip id="pas_east_126" depart="709.86" from="e_t" to="t_n" departLane="best" departSpeed="max" departPos="base" type="pas_east__passenger" />
    <trip id="pas_east_127" depart="715.49" from="e_t" to="t_s" departLane="best" departSpeed="max" departPos="base" type="pas_east__passenger" />
    <trip id="pas_east_128" depart="721.13" from="e_t" to="t_w" departLane="best" departSpeed="max" departPos="base" type="pas_east__passenger" />
    <trip id="pas_east_129" depart="726.76" from="e_t" to="t_s" departLane="best" departSpeed="max" departPos="base" type="pas_east__passenger" />
    <trip id="pas_east_130" depart="732.39" from="e_t" to="t_s" departLane="best" departSpeed="max" departPos="base" type="pas_east__passenger" />
    <trip id="pas_east_131" depart="738.03" from="e_t" to="t_s" departLane="best" departSpeed="max" departPos="base" type="pas_east__passenger" />
    <trip id="pas_east_132" depart="743.66" from="e_t" to="t_s" departLane="best" departSpeed="max" departPos="base" type="pas_east__passenger" />
    <trip id="pas_east_133" depart="749.30" from="e_t" to="t_s" departLane="best" departSpeed="max" departPos="base" type="pas_east__passenger" />
    <trip id="pas_east_134" depart="754.93" from="e_t" to="t_n" departLane="best" departSpeed="max" departPos="base" type="pas_east__passenger" />
    <trip id="pas_east_135" depart="760.56" from="e_t" to="t_w" departLane="best" departSpeed="max" departPos="base" type="pas_east__passenger" />
    <trip id="pas_east_136" depart="766.20" from="e_t" to="t_w" departLane="best" departSpeed="max" departPos="base" type="pas_east__passenger" />
    <trip id="pas_east_137" depart="771.83" from="e_t" to="t_s" departLane="best" departSpeed="max" departPos="base" type="pas_east__passenger" />
    <trip id="pas_east_138" depart="777.46" from="e_t" to="t_w" departLane="best" departSpeed="max" departPos="base" type="pas_east__passenger" />
    <trip id="pas_east_139" depart="783.10" from="e_t" to="t_w" departLane="best" departSpeed="max" departPos="base" type="pas_east__passenger" />
    <trip id="pas_east_140" depart="788.73" from="e_t" to="t_n" departLane="best" departSpeed="max" departPos="base" type="pas_east__passenger" />
    <trip id="pas_east_141" depart="794.37" from="e_t" to="t_w" departLane="best" departSpeed="max" departPos="base" type="pas_east__passenger" />
    <trip id="pas_east_142" depart="800.00" from="e_t" to="t_w" departLane="best" departSpeed="max" departPos="base" type="pas_east__passenger" />
    <trip id="pas_east_143" depart="805.63" from="e_t" to="t_n" departLane="best" departSpeed="max" departPos="base" type="pas_east__passenger" />
    <trip id="pas_east_144" depart="811.27" from="e_t" to="t_s" departLane="best" departSpeed="max" departPos="base" type="pas_east__passenger" />
    <trip id="pas_east_145" depart="816.90" from="e_t" to="t_n" departLane="best" departSpeed="max" departPos="base" type="pas_east__passenger" />
    <trip id="pas_east_146" depart="822.54" from="e_t" to="t_n" departLane="best" departSpeed="max" departPos="base" type="pas_east__passenger" />
    <trip id="pas_east_147" depart="828.17" from="e_t" to="t_n" departLane="best" departSpeed="max" departPos="base" type="pas_east__passenger" />
    <trip id="pas_east_148" depart="833.80" from="e_t" to="t_n" departLane="best" departSpeed="max" departPos="base" type="pas_east__passenger" />
    <trip id="pas_east_149" depart="839.44" from="e_t" to="t_w" departLane="best" departSpeed="max" departPos="base" type="pas_east__passenger" />
    <trip id="pas_east_150" depart="845.07" from="e_t" to="t_w" departLane="best" departSpeed="max" departPos="base" type="pas_east__passenger" />
    <trip id="pas_east_151" depart="850.70" from="e_t" to="t_n" departLane="best" departSpeed="max" departPos="base" type="pas_east__passenger" />
    <trip id="pas_east_152" depart="856.34" from="e_t" to="t_n" departLane="best" departSpeed="max" departPos="base" type="pas_east__passenger" />
    <trip id="pas_east_153" depart="861.97" from="e_t" to="t_s" departLane="best" departSpeed="max" departPos="base" type="pas_east__passenger" />
    <trip id="pas_east_154" depart="867.61" from="e_t" to="t_w" departLane="best" departSpeed="max" departPos="base" type="pas_east__passenger" />
    <trip id="pas_east_155" depart="873.24" from="e_t" to="t_w" departLane="best" departSpeed="max" departPos="base" type="pas_east__passenger" />
    <trip id="pas_east_156" depart="878.87" from="e_t" to="t_n" departLane="best" departSpeed="max" departPos="base" type="pas_east__passenger" />
    <trip id="pas_east_157" depart="884.51" from="e_t" to="t_s" departLane="best" departSpeed="max" departPos="base" type="pas_east__passenger" />
    <trip id="pas_east_158" depart="890.14" from="e_t" to="t_n" departLane="best" departSpeed="max" departPos="base" type="pas_east__passenger" />
    <trip id="pas_east_159" depart="895.77" from="e_t" to="t_s" departLane="best" departSpeed="max" departPos="base" type="pas_east__passenger" />
    <trip id="pas_east_160" depart="901.41" from="e_t" to="t_w" departLane="best" departSpeed="max" departPos="base" type="pas_east__passenger" />
    <trip id="pas_east_161" depart="907.04" from="e_t" to="t_n" departLane="best" departSpeed="max" departPos="base" type="pas_east__passenger" />
    <trip id="pas_east_162" depart="912.68" from="e_t" to="t_n" departLane="best" departSpeed="max" departPos="base" type="pas_east__passenger" />
    <trip id="pas_east_163" depart="918.31" from="e_t" to="t_s" departLane="best" departSpeed="max" departPos="base" type="pas_east__passenger" />
    <trip id="pas_east_164" depart="923.94" from="e_t" to="t_w" departLane="best" departSpeed="max" departPos="base" type="pas_east__passenger" />
    <trip id="pas_east_165" depart="929.58" from="e_t" to="t_s" departLane="best" departSpeed="max" departPos="base" type="pas_east__passenger" />
    <trip id="pas_east_166" depart="935.21" from="e_t" to="t_s" departLane="best" departSpeed="max" departPos="base" type="pas_east__passenger" />
    <trip id="pas_east_167" depart="940.85" from="e_t" to="t_n" departLane="best" departSpeed="max" departPos="base" type="pas_east__passenger" />
    <trip id="pas_east_168" depart="946.48" from="e_t" to="t_n" departLane="best" departSpeed="max" departPos="base" type="pas_east__passenger" />
    <trip id="pas_east_169" depart="952.11" from="e_t" to="t_s" departLane="best" departSpeed="max" departPos="base" type="pas_east__passenger" />
    <trip id="pas_east_170" depart="957.75" from="e_t" to="t_s" departLane="best" departSpeed="max" departPos="base" type="pas_east__passenger" />
    <trip id="pas_east_171" depart="963.38" from="e_t" to="t_w" departLane="best" departSpeed="max" departPos="base" type="pas_east__passenger" />
    <trip id="pas_east_172" depart="969.01" from="e_t" to="t_n" departLane="best" departSpeed="max" departPos="base" type="pas_east__passenger" />
    <trip id="pas_east_173" depart="974.65" from="e_t" to="t_n" departLane="best" departSpeed="max" departPos="base" type="pas_east__passenger" />
    <trip id="pas_east_174" depart="980.28" from="e_t" to="t_n" departLane="best" departSpeed="max" departPos="base" type="pas_east__passenger" />
    <trip id="pas_east_175" depart="985.92" from="e_t" to="t_s" departLane="best" departSpeed="max" departPos="base" type="pas_east__passenger" />
    <trip id="pas_east_176" depart="991.55" from="e_t" to="t_n" departLane="best" departSpeed="max" departPos="base" type="pas_east__passenger" />
    <trip id="pas_east_177" depart="997.18" from="e_t" to="t_n" departLane="best" departSpeed="max" departPos="base" type="pas_east__passenger" />
    <trip id="pas_east_178" depart="1002.82" from="e_t" to="t_s" departLane="best" departSpeed="max" departPos="base" type="pas_east__passenger" />
    <trip id="pas_east_179" depart="1008.45" from="e_t" to="t_s" departLane="best" departSpeed="max" departPos="base" type="pas_east__passenger" />
    <trip id="pas_east_180" depart="1014.08" from="e_t" to="t_w" departLane="best" departSpeed="max" departPos="base" type="pas_east__passenger" />
    <trip id="pas_east_181" depart="1019.72" from="e_t" to="t_n" departLane="best" departSpeed="max" departPos="base" type="pas_east__passenger" />
    <trip id="pas_east_182" depart="1025.35" from="e_t" to="t_n" departLane="best" departSpeed="max" departPos="base" type="pas_east__passenger" />
    <trip id="pas_east_183" depart="1030.99" from="e_t" to="t_n" departLane="best" departSpeed="max" departPos="base" type="pas_east__passenger" />
    <trip id="pas_east_184" depart="1036.62" from="e_t" to="t_n" departLane="best" departSpeed="max" departPos="base" type="pas_east__passenger" />
    <trip id="pas_east_185" depart="1042.25" from="e_t" to="t_w" departLane="best" departSpeed="max" departPos="base" type="pas_east__passenger" />
    <trip id="pas_east_186" depart="1047.89" from="e_t" to="t_s" departLane="best" departSpeed="max" departPos="base" type="pas_east__passenger" />
    <trip id="pas_east_187" depart="1053.52" from="e_t" to="t_w" departLane="best" departSpeed="max" departPos="base" type="pas_east__passenger" />
    <trip id="pas_east_188" depart="1059.15" from="e_t" to="t_s" departLane="best" departSpeed="max" departPos="base" type="pas_east__passenger" />
    <trip id="pas_east_189" depart="1064.79" from="e_t" to="t_s" departLane="best" departSpeed="max" departPos="base" type="pas_east__passenger" />
    <trip id="pas_east_190" depart="1070.42" from="e_t" to="t_w" departLane="best" departSpeed="max" departPos="base" type="pas_east__passenger" />
    <trip id="pas_east_191" depart="1076.06" from="e_t" to="t_n" departLane="best" departSpeed="max" departPos="base" type="pas_east__passenger" />
    <trip id="pas_east_192" depart="1081.69" from="e_t" to="t_n" departLane="best" departSpeed="max" departPos="base" type="pas_east__passenger" />
    <trip id="pas_east_193" depart="1087.32" from="e_t" to="t_n" departLane="best" departSpeed="max" departPos="base" type="pas_east__passenger" />
    <trip id="pas_east_194" depart="1092.96" from="e_t" to="t_n" departLane="best" departSpeed="max" departPos="base" type="pas_east__passenger" />
    <trip id="pas_east_195" depart="1098.59" from="e_t" to="t_s" departLane="best" departSpeed="max" departPos="base" type="pas_east__passenger" />
    <trip id="pas_east_196" depart="1104.23" from="e_t" to="t_w" departLane="best" departSpeed="max" departPos="base" type="pas_east__passenger" />
    <trip id="pas_east_197" depart="1109.86" from="e_t" to="t_w" departLane="best" departSpeed="max" departPos="base" type="pas_east__passenger" />
    <trip id="pas_east_198" depart="1115.49" from="e_t" to="t_w" departLane="best" departSpeed="max" departPos="base" type="pas_east__passenger" />
    <trip id="pas_east_199" depart="1121.13" from="e_t" to="t_s" departLane="best" departSpeed="max" departPos="base" type="pas_east__passenger" />
    <trip id="pas_east_200" depart="1126.76" from="e_t" to="t_s" departLane="best" departSpeed="max" departPos="base" type="pas_east__passenger" />
    <trip id="pas_east_201" depart="1132.39" from="e_t" to="t_s" departLane="best" departSpeed="max" departPos="base" type="pas_east__passenger" />
    <trip id="pas_east_202" depart="1138.03" from="e_t" to="t_s" departLane="best" departSpeed="max" departPos="base" type="pas_east__passenger" />