<?xml version="1.0" encoding="UTF-8"?>

<!-- generated on 2024-06-01 12:35:26.131109 by randomTrips.py v1_19_0+0000-baa66a0f364
<configuration>
    <net-file value="single-intersection-new.net.xml"/>
    <additional-files value="osm.add.xml"/>
    <output-trip-file value="osm.south.trips.xml"/>
    <prefix value="pas_south_"/>
    <trip-attributes value="departLane=&quot;best&quot; departSpeed=&quot;max&quot; departPos=&quot;base&quot;"/>
    <vehicle-class value="passenger"/>
    <period value="9.44881889763"/>
</configuration>
-->

<routes xmlns:xsi="http://www.w3.org/2001/XMLSchema-instance" xsi:noNamespaceSchemaLocation="http://sumo.dlr.de/xsd/routes_file.xsd">
    <vType id="pas_south__passenger" vClass="passenger"/>
    <trip id="pas_south_0" depart="0.00" from="s_t" to="t_e" departLane="best" departSpeed="max" departPos="base" type="pas_south__passenger"/>
    <trip id="pas_south_1" depart="9.45" from="n_t" to="t_e" departLane="best" departSpeed="max" departPos="base" type="pas_south__passenger"/>
    <trip id="pas_south_2" depart="18.90" from="s_t" to="t_s" departLane="best" departSpeed="max" departPos="base" type="pas_south__passenger"/>
    <trip id="pas_south_3" depart="28.35" from="w_t" to="t_e" departLane="best" departSpeed="max" departPos="base" type="pas_south__passenger"/>
    <trip id="pas_south_4" depart="37.80" from="n_t" to="t_e" departLane="best" departSpeed="max" departPos="base" type="pas_south__passenger"/>
    <trip id="pas_south_5" depart="47.24" from="e_t" to="t_s" departLane="best" departSpeed="max" departPos="base" type="pas_south__passenger"/>
    <trip id="pas_south_6" depart="56.69" from="e_t" to="t_e" departLane="best" departSpeed="max" departPos="base" type="pas_south__passenger"/>
    <trip id="pas_south_7" depart="66.14" from="s_t" to="t_s" departLane="best" departSpeed="max" departPos="base" type="pas_south__passenger"/>
    <trip id="pas_south_8" depart="75.59" from="e_t" to="t_s" departLane="best" departSpeed="max" departPos="base" type="pas_south__passenger"/>
    <trip id="pas_south_9" depart="85.04" from="w_t" to="t_e" departLane="best" departSpeed="max" departPos="base" type="pas_south__passenger"/>
    <trip id="pas_south_10" depart="94.49" from="w_t" to="t_s" departLane="best" departSpeed="max" departPos="base" type="pas_south__passenger"/>
    <trip id="pas_south_11" depart="103.94" from="n_t" to="t_e" departLane="best" departSpeed="max" departPos="base" type="pas_south__passenger"/>
    <trip id="pas_south_12" depart="113.39" from="w_t" to="t_n" departLane="best" departSpeed="max" departPos="base" type="pas_south__passenger"/>
    <trip id="pas_south_13" depart="122.83" from="e_t" to="t_e" departLane="best" departSpeed="max" departPos="base" type="pas_south__passenger"/>
    <trip id="pas_south_14" depart="132.28" from="w_t" to="t_s" departLane="best" departSpeed="max" departPos="base" type="pas_south__passenger"/>
    <trip id="pas_south_15" depart="141.73" from="w_t" to="t_s" departLane="best" departSpeed="max" departPos="base" type="pas_south__passenger"/>
    <trip id="pas_south_16" depart="151.18" from="s_t" to="t_w" departLane="best" departSpeed="max" departPos="base" type="pas_south__passenger"/>
    <trip id="pas_south_17" depart="160.63" from="n_t" to="t_s" departLane="best" departSpeed="max" departPos="base" type="pas_south__passenger"/>
    <trip id="pas_south_18" depart="170.08" from="w_t" to="t_s" departLane="best" departSpeed="max" departPos="base" type="pas_south__passenger"/>
    <trip id="pas_south_19" depart="179.53" from="w_t" to="t_s" departLane="best" departSpeed="max" departPos="base" type="pas_south__passenger"/>
    <trip id="pas_south_20" depart="188.98" from="s_t" to="t_e" departLane="best" departSpeed="max" departPos="base" type="pas_south__passenger"/>
    <trip id="pas_south_21" depart="198.43" from="e_t" to="t_n" departLane="best" departSpeed="max" departPos="base" type="pas_south__passenger"/>
    <trip id="pas_south_22" depart="207.87" from="e_t" to="t_e" departLane="best" departSpeed="max" departPos="base" type="pas_south__passenger"/>
    <trip id="pas_south_23" depart="217.32" from="e_t" to="t_n" departLane="best" departSpeed="max" departPos="base" type="pas_south__passenger"/>
    <trip id="pas_south_24" depart="226.77" from="s_t" to="t_n" departLane="best" departSpeed="max" departPos="base" type="pas_south__passenger"/>
    <trip id="pas_south_25" depart="236.22" from="n_t" to="t_e" departLane="best" departSpeed="max" departPos="base" type="pas_south__passenger"/>
    <trip id="pas_south_26" depart="245.67" from="n_t" to="t_w" departLane="best" departSpeed="max" departPos="base" type="pas_south__passenger"/>
    <trip id="pas_south_27" depart="255.12" from="s_t" to="t_s" departLane="best" departSpeed="max" departPos="base" type="pas_south__passenger"/>
    <trip id="pas_south_28" depart="264.57" from="e_t" to="t_s" departLane="best" departSpeed="max" departPos="base" type="pas_south__passenger"/>
    <trip id="pas_south_29" depart="274.02" from="e_t" to="t_n" departLane="best" departSpeed="max" departPos="base" type="pas_south__passenger"/>
    <trip id="pas_south_30" depart="283.46" from="w_t" to="t_s" departLane="best" departSpeed="max" departPos="base" type="pas_south__passenger"/>
    <trip id="pas_south_31" depart="292.91" from="s_t" to="t_s" departLane="best" departSpeed="max" departPos="base" type="pas_south__passenger"/>
    <trip id="pas_south_32" depart="302.36" from="w_t" to="t_w" departLane="best" departSpeed="max" departPos="base" type="pas_south__passenger"/>
    <trip id="pas_south_33" depart="311.81" from="e_t" to="t_e" departLane="best" departSpeed="max" departPos="base" type="pas_south__passenger"/>
    <trip id="pas_south_34" depart="321.26" from="n_t" to="t_n" departLane="best" departSpeed="max" departPos="base" type="pas_south__passenger"/>
    <trip id="pas_south_35" depart="330.71" from="e_t" to="t_w" departLane="best" departSpeed="max" departPos="base" type="pas_south__passenger"/>
    <trip id="pas_south_36" depart="340.16" from="w_t" to="t_n" departLane="best" departSpeed="max" departPos="base" type="pas_south__passenger"/>
    <trip id="pas_south_37" depart="349.61" from="s_t" to="t_n" departLane="best" departSpeed="max" departPos="base" type="pas_south__passenger"/>
    <trip id="pas_south_38" depart="359.06" from="w_t" to="t_n" departLane="best" departSpeed="max" departPos="base" type="pas_south__passenger"/>
    <trip id="pas_south_39" depart="368.50" from="n_t" to="t_e" departLane="best" departSpeed="max" departPos="base" type="pas_south__passenger"/>
    <trip id="pas_south_40" depart="377.95" from="s_t" to="t_n" departLane="best" departSpeed="max" departPos="base" type="pas_south__passenger"/>
    <trip id="pas_south_41" depart="387.40" from="s_t" to="t_w" departLane="best" departSpeed="max" departPos="base" type="pas_south__passenger"/>
    <trip id="pas_south_42" depart="396.85" from="n_t" to="t_e" departLane="best" departSpeed="max" departPos="base" type="pas_south__passenger"/>
    <trip id="pas_south_43" depart="406.30" from="w_t" to="t_s" departLane="best" departSpeed="max" departPos="base" type="pas_south__passenger"/>
    <trip id="pas_south_44" depart="415.75" from="e_t" to="t_e" departLane="best" departSpeed="max" departPos="base" type="pas_south__passenger"/>
    <trip id="pas_south_45" depart="425.20" from="e_t" to="t_s" departLane="best" departSpeed="max" departPos="base" type="pas_south__passenger"/>
    <trip id="pas_south_46" depart="434.65" from="w_t" to="t_n" departLane="best" departSpeed="max" departPos="base" type="pas_south__passenger"/>
    <trip id="pas_south_47" depart="444.09" from="e_t" to="t_n" departLane="best" departSpeed="max" departPos="base" type="pas_south__passenger"/>
    <trip id="pas_south_48" depart="453.54" from="w_t" to="t_s" departLane="best" departSpeed="max" departPos="base" type="pas_south__passenger"/>
    <trip id="pas_south_49" depart="462.99" from="w_t" to="t_w" departLane="best" departSpeed="max" departPos="base" type="pas_south__passenger"/>
    <trip id="pas_south_50" depart="472.44" from="e_t" to="t_s" departLane="best" departSpeed="max" departPos="base" type="pas_south__passenger"/>
    <trip id="pas_south_51" depart="481.89" from="s_t" to="t_s" departLane="best" departSpeed="max" departPos="base" type="pas_south__passenger"/>
    <trip id="pas_south_52" depart="491.34" from="n_t" to="t_s" departLane="best" departSpeed="max" departPos="base" type="pas_south__passenger"/>
    <trip id="pas_south_53" depart="500.79" from="e_t" to="t_n" departLane="best" departSpeed="max" departPos="base" type="pas_south__passenger"/>
    <trip id="pas_south_54" depart="510.24" from="n_t" to="t_w" departLane="best" departSpeed="max" departPos="base" type="pas_south__passenger"/>
    <trip id="pas_south_55" depart="519.69" from="w_t" to="t_n" departLane="best" departSpeed="max" departPos="base" type="pas_south__passenger"/>
    <trip id="pas_south_56" depart="529.13" from="s_t" to="t_e" departLane="best" departSpeed="max" departPos="base" type="pas_south__passenger"/>
    <trip id="pas_south_57" depart="538.58" from="w_t" to="t_w" departLane="best" departSpeed="max" departPos="base" type="pas_south__passenger"/>
    <trip id="pas_south_58" depart="548.03" from="n_t" to="t_s" departLane="best" departSpeed="max" departPos="base" type="pas_south__passenger"/>
    <trip id="pas_south_59" depart="557.48" from="s_t" to="t_e" departLane="best" departSpeed="max" departPos="base" type="pas_south__passenger"/>
    <trip id="pas_south_60" depart="566.93" from="w_t" to="t_s" departLane="best" departSpeed="max" departPos="base" type="pas_south__passenger"/>
    <trip id="pas_south_61" depart="576.38" from="w_t" to="t_s" departLane="best" departSpeed="max" departPos="base" type="pas_south__passenger"/>
    <trip id="pas_south_62" depart="585.83" from="e_t" to="t_n" departLane="best" departSpeed="max" departPos="base" type="pas_south__passenger"/>
    <trip id="pas_south_63" depart="595.28" from="e_t" to="t_w" departLane="best" departSpeed="max" departPos="base" type="pas_south__passenger"/>
    <trip id="pas_south_64" depart="604.72" from="w_t" to="t_w" departLane="best" departSpeed="max" departPos="base" type="pas_south__passenger"/>
    <trip id="pas_south_65" depart="614.17" from="n_t" to="t_e" departLane="best" departSpeed="max" departPos="base" type="pas_south__passenger"/>
    <trip id="pas_south_66" depart="623.62" from="w_t" to="t_w" departLane="best" departSpeed="max" departPos="base" type="pas_south__passenger"/>
    <trip id="pas_south_67" depart="633.07" from="e_t" to="t_n" departLane="best" departSpeed="max" departPos="base" type="pas_south__passenger"/>
    <trip id="pas_south_68" depart="642.52" from="e_t" to="t_w" departLane="best" departSpeed="max" departPos="base" type="pas_south__passenger"/>
    <trip id="pas_south_69" depart="651.97" from="w_t" to="t_e" departLane="best" departSpeed="max" departPos="base" type="pas_south__passenger"/>
    <trip id="pas_south_70" depart="661.42" from="n_t" to="t_s" departLane="best" departSpeed="max" departPos="base" type="pas_south__passenger"/>
    <trip id="pas_south_71" depart="670.87" from="n_t" to="t_w" departLane="best" departSpeed="max" departPos="base" type="pas_south__passenger"/>
    <trip id="pas_south_72" depart="680.31" from="n_t" to="t_e" departLane="best" departSpeed="max" departPos="base" type="pas_south__passenger"/>
    <trip id="pas_south_73" depart="689.76" from="s_t" to="t_s" departLane="best" departSpeed="max" departPos="base" type="pas_south__passenger"/>
    <trip id="pas_south_74" depart="699.21" from="e_t" to="t_n" departLane="best" departSpeed="max" departPos="base" type="pas_south__passenger"/>
    <trip id="pas_south_75" depart="708.66" from="w_t" to="t_s" departLane="best" departSpeed="max" departPos="base" type="pas_south__passenger"/>
    <trip id="pas_south_76" depart="718.11" from="n_t" to="t_s" departLane="best" departSpeed="max" departPos="base" type="pas_south__passenger"/>
    <trip id="pas_south_77" depart="727.56" from="e_t" to="t_e" departLane="best" departSpeed="max" departPos="base" type="pas_south__passenger"/>
    <trip id="pas_south_78" depart="737.01" from="n_t" to="t_s" departLane="best" departSpeed="max" departPos="base" type="pas_south__passenger"/>
    <trip id="pas_south_79" depart="746.46" from="e_t" to="t_e" departLane="best" departSpeed="max" departPos="base" type="pas_south__passenger"/>
    <trip id="pas_south_80" depart="755.91" from="e_t" to="t_s" departLane="best" departSpeed="max" departPos="base" type="pas_south__passenger"/>
    <trip id="pas_south_81" depart="765.35" from="e_t" to="t_w" departLane="best" departSpeed="max" departPos="base" type="pas_south__passenger"/>
    <trip id="pas_south_82" depart="774.80" from="w_t" to="t_e" departLane="best" departSpeed="max" departPos="base" type="pas_south__passenger"/>
    <trip id="pas_south_83" depart="784.25" from="e_t" to="t_s" departLane="best" departSpeed="max" departPos="base" type="pas_south__passenger"/>
    <trip id="pas_south_84" depart="793.70" from="e_t" to="t_e" departLane="best" departSpeed="max" departPos="base" type="pas_south__passenger"/>
    <trip id="pas_south_85" depart="803.15" from="w_t" to="t_s" departLane="best" departSpeed="max" departPos="base" type="pas_south__passenger"/>
    <trip id="pas_south_86" depart="812.60" from="n_t" to="t_w" departLane="best" departSpeed="max" departPos="base" type="pas_south__passenger"/>
    <trip id="pas_south_87" depart="822.05" from="w_t" to="t_e" departLane="best" departSpeed="max" departPos="base" type="pas_south__passenger"/>
    <trip id="pas_south_88" depart="831.50" from="e_t" to="t_n" departLane="best" departSpeed="max" departPos="base" type="pas_south__passenger"/>
    <trip id="pas_south_89" depart="840.94" from="n_t" to="t_n" departLane="best" departSpeed="max" departPos="base" type="pas_south__passenger"/>
    <trip id="pas_south_90" depart="850.39" from="s_t" to="t_s" departLane="best" departSpeed="max" departPos="base" type="pas_south__passenger"/>
    <trip id="pas_south_91" depart="859.84" from="w_t" to="t_e" departLane="best" departSpeed="max" departPos="base" type="pas_south__passenger"/>
    <trip id="pas_south_92" depart="869.29" from="n_t" to="t_n" departLane="best" departSpeed="max" departPos="base" type="pas_south__passenger"/>
    <trip id="pas_south_93" depart="878.74" from="w_t" to="t_e" departLane="best" departSpeed="max" departPos="base" type="pas_south__passenger"/>
    <trip id="pas_south_94" depart="888.19" from="e_t" to="t_n" departLane="best" departSpeed="max" departPos="base" type="pas_south__passenger"/>
    <trip id="pas_south_95" depart="897.64" from="n_t" to="t_n" departLane="best" departSpeed="max" departPos="base" type="pas_south__passenger"/>
    <trip id="pas_south_96" depart="907.09" from="e_t" to="t_w" departLane="best" departSpeed="max" departPos="base" type="pas_south__passenger"/>
    <trip id="pas_south_97" depart="916.54" from="n_t" to="t_w" departLane="best" departSpeed="max" departPos="base" type="pas_south__passenger"/>
    <trip id="pas_south_98" depart="925.98" from="s_t" to="t_e" departLane="best" departSpeed="max" departPos="base" type="pas_south__passenger"/>
    <trip id="pas_south_99" depart="935.43" from="w_t" to="t_w" departLane="best" departSpeed="max" departPos="base" type="pas_south__passenger"/>
    <trip id="pas_south_100" depart="944.88" from="w_t" to="t_w" departLane="best" departSpeed="max" departPos="base" type="pas_south__passenger"/>
    <trip id="pas_south_101" depart="954.33" from="w_t" to="t_e" departLane="best" departSpeed="max" departPos="base" type="pas_south__passenger"/>
    <trip id="pas_south_102" depart="963.78" from="n_t" to="t_e" departLane="best" departSpeed="max" departPos="base" type="pas_south__passenger"/>
    <trip id="pas_south_103" depart="973.23" from="n_t" to="t_e" departLane="best" departSpeed="max" departPos="base" type="pas_south__passenger"/>
    <trip id="pas_south_104" depart="982.68" from="n_t" to="t_w" departLane="best" departSpeed="max" departPos="base" type="pas_south__passenger"/>
    <trip id="pas_south_105" depart="992.13" from="n_t" to="t_w" departLane="best" departSpeed="max" departPos="base" type="pas_south__passenger"/>
    <trip id="pas_south_106" depart="1001.57" from="n_t" to="t_n" departLane="best" departSpeed="max" departPos="base" type="pas_south__passenger"/>
    <trip id="pas_south_107" depart="1011.02" from="w_t" to="t_w" departLane="best" departSpeed="max" departPos="base" type="pas_south__passenger"/>
    <trip id="pas_south_108" depart="1020.47" from="s_t" to="t_s" departLane="best" departSpeed="max" departPos="base" type="pas_south__passenger"/>
    <trip id="pas_south_109" depart="1029.92" from="e_t" to="t_n" departLane="best" departSpeed="max" departPos="base" type="pas_south__passenger"/>
    <trip id="pas_south_110" depart="1039.37" from="w_t" to="t_s" departLane="best" departSpeed="max" departPos="base" type="pas_south__passenger"/>
    <trip id="pas_south_111" depart="1048.82" from="s_t" to="t_s" departLane="best" departSpeed="max" departPos="base" type="pas_south__passenger"/>
    <trip id="pas_south_112" depart="1058.27" from="e_t" to="t_s" departLane="best" departSpeed="max" departPos="base" type="pas_south__passenger"/>
    <trip id="pas_south_113" depart="1067.72" from="s_t" to="t_w" departLane="best" departSpeed="max" departPos="base" type="pas_south__passenger"/>
    <trip id="pas_south_114" depart="1077.17" from="e_t" to="t_w" departLane="best" departSpeed="max" departPos="base" type="pas_south__passenger"/>
    <trip id="pas_south_115" depart="1086.61" from="e_t" to="t_e" departLane="best" departSpeed="max" departPos="base" type="pas_south__passenger"/>
    <trip id="pas_south_116" depart="1096.06" from="s_t" to="t_s" departLane="best" departSpeed="max" departPos="base" type="pas_south__passenger"/>
    <trip id="pas_south_117" depart="1105.51" from="e_t" to="t_e" departLane="best" departSpeed="max" departPos="base" type="pas_south__passenger"/>
    <trip id="pas_south_118" depart="1114.96" from="w_t" to="t_e" departLane="best" departSpeed="max" departPos="base" type="pas_south__passenger"/>
    <trip id="pas_south_119" depart="1124.41" from="s_t" to="t_s" departLane="best" departSpeed="max" departPos="base" type="pas_south__passenger"/>
    <trip id="pas_south_120" depart="1133.86" from="n_t" to="t_s" departLane="best" departSpeed="max" departPos="base" type="pas_south__passenger"/>
    <trip id="pas_south_121" depart="1143.31" from="s_t" to="t_w" departLane="best" departSpeed="max" departPos="base" type="pas_south__passenger"/>
    <trip id="pas_south_122" depart="1152.76" from="e_t" to="t_s" departLane="best" departSpeed="max" departPos="base" type="pas_south__passenger"/>
    <trip id="pas_south_123" depart="1162.20" from="e_t" to="t_n" departLane="best" departSpeed="max" departPos="base" type="pas_south__passenger"/>
    <trip id="pas_south_124" depart="1171.65" from="s_t" to="t_n" departLane="best" departSpeed="max" departPos="base" type="pas_south__passenger"/>
    <trip id="pas_south_125" depart="1181.10" from="n_t" to="t_w" departLane="best" departSpeed="max" departPos="base" type="pas_south__passenger"/>
    <trip id="pas_south_126" depart="1190.55" from="e_t" to="t_n" departLane="best" departSpeed="max" departPos="base" type="pas_south__passenger"/>
    <trip id="pas_south_127" depart="1200.00" from="w_t" to="t_w" departLane="best" departSpeed="max" departPos="base" type="pas_south__passenger"/>
    <trip id="pas_south_128" depart="1209.45" from="e_t" to="t_e" departLane="best" departSpeed="max" departPos="base" type="pas_south__passenger"/>
    <trip id="pas_south_129" depart="1218.90" from="n_t" to="t_w" departLane="best" departSpeed="max" departPos="base" type="pas_south__passenger"/>
    <trip id="pas_south_130" depart="1228.35" from="w_t" to="t_w" departLane="best" departSpeed="max" departPos="base" type="pas_south__passenger"/>
    <trip id="pas_south_131" depart="1237.80" from="n_t" to="t_e" departLane="best" departSpeed="max" departPos="base" type="pas_south__passenger"/>
    <trip id="pas_south_132" depart="1247.24" from="w_t" to="t_s" departLane="best" departSpeed="max" departPos="base" type="pas_south__passenger"/>
    <trip id="pas_south_133" depart="1256.69" from="s_t" to="t_w" departLane="best" departSpeed="max" departPos="base" type="pas_south__passenger"/>
    <trip id="pas_south_134" depart="1266.14" from="s_t" to="t_e" departLane="best" departSpeed="max" departPos="base" type="pas_south__passenger"/>
    <trip id="pas_south_135" depart="1275.59" from="w_t" to="t_n" departLane="best" departSpeed="max" departPos="base" type="pas_south__passenger"/>
    <trip id="pas_south_136" depart="1285.04" from="s_t" to="t_w" departLane="best" departSpeed="max" departPos="base" type="pas_south__passenger"/>
    <trip id="pas_south_137" depart="1294.49" from="e_t" to="t_e" departLane="best" departSpeed="max" departPos="base" type="pas_south__passenger"/>
    <trip id="pas_south_138" depart="1303.94" from="e_t" to="t_s" departLane="best" departSpeed="max" departPos="base" type="pas_south__passenger"/>
    <trip id="pas_south_139" depart="1313.39" from="n_t" to="t_s" departLane="best" departSpeed="max" departPos="base" type="pas_south__passenger"/>
    <trip id="pas_south_140" depart="1322.83" from="s_t" to="t_e" departLane="best" departSpeed="max" departPos="base" type="pas_south__passenger"/>
    <trip id="pas_south_141" depart="1332.28" from="s_t" to="t_n" departLane="best" departSpeed="max" departPos="base" type="pas_south__passenger"/>
    <trip id="pas_south_142" depart="1341.73" from="n_t" to="t_w" departLane="best" departSpeed="max" departPos="base" type="pas_south__passenger"/>
    <trip id="pas_south_143" depart="1351.18" from="w_t" to="t_e" departLane="best" departSpeed="max" departPos="base" type="pas_south__passenger"/>
    <trip id="pas_south_144" depart="1360.63" from="n_t" to="t_n" departLane="best" departSpeed="max" departPos="base" type="pas_south__passenger"/>
    <trip id="pas_south_145" depart="1370.08" from="e_t" to="t_w" departLane="best" departSpeed="max" departPos="base" type="pas_south__passenger"/>
    <trip id="pas_south_146" depart="1379.53" from="s_t" to="t_n" departLane="best" departSpeed="max" departPos="base" type="pas_south__passenger"/>
    <trip id="pas_south_147" depart="1388.98" from="s_t" to="t_s" departLane="best" departSpeed="max" departPos="base" type="pas_south__passenger"/>
    <trip id="pas_south_148" depart="1398.43" from="n_t" to="t_e" departLane="best" departSpeed="max" departPos="base" type="pas_south__passenger"/>
    <trip id="pas_south_149" depart="1407.87" from="e_t" to="t_w" departLane="best" departSpeed="max" departPos="base" type="pas_south__passenger"/>
    <trip id="pas_south_150" depart="1417.32" from="w_t" to="t_s" departLane="best" departSpeed="max" departPos="base" type="pas_south__passenger"/>
    <trip id="pas_south_151" depart="1426.77" from="w_t" to="t_s" departLane="best" departSpeed="max" departPos="base" type="pas_south__passenger"/>
    <trip id="pas_south_152" depart="1436.22" from="e_t" to="t_e" departLane="best" departSpeed="max" departPos="base" type="pas_south__passenger"/>
    <trip id="pas_south_153" depart="1445.67" from="n_t" to="t_w" departLane="best" departSpeed="max" departPos="base" type="pas_south__passenger"/>
    <trip id="pas_south_154" depart="1455.12" from="w_t" to="t_w" departLane="best" departSpeed="max" departPos="base" type="pas_south__passenger"/>
    <trip id="pas_south_155" depart="1464.57" from="w_t" to="t_e" departLane="best" departSpeed="max" departPos="base" type="pas_south__passenger"/>
    <trip id="pas_south_156" depart="1474.02" from="e_t" to="t_e" departLane="best" departSpeed="max" departPos="base" type="pas_south__passenger"/>
    <trip id="pas_south_157" depart="1483.46" from="w_t" to="t_w" departLane="best" departSpeed="max" departPos="base" type="pas_south__passenger"/>
    <trip id="pas_south_158" depart="1492.91" from="n_t" to="t_s" departLane="best" departSpeed="max" departPos="base" type="pas_south__passenger"/>
    <trip id="pas_south_159" depart="1502.36" from="e_t" to="t_w" departLane="best" departSpeed="max" departPos="base" type="pas_south__passenger"/>
    <trip id="pas_south_160" depart="1511.81" from="w_t" to="t_w" departLane="best" departSpeed="max" departPos="base" type="pas_south__passenger"/>
    <trip id="pas_south_161" depart="1521.26" from="w_t" to="t_w" departLane="best" departSpeed="max" departPos="base" type="pas_south__passenger"/>
    <trip id="pas_south_162" depart="1530.71" from="e_t" to="t_s" departLane="best" departSpeed="max" departPos="base" type="pas_south__passenger"/>
    <trip id="pas_south_163" depart="1540.16" from="n_t" to="t_w" departLane="best" departSpeed="max" departPos="base" type="pas_south__passenger"/>
    <trip id="pas_south_164" depart="1549.61" from="w_t" to="t_w" departLane="best" departSpeed="max" departPos="base" type="pas_south__passenger"/>
    <trip id="pas_south_165" depart="1559.06" from="w_t" to="t_n" departLane="best" departSpeed="max" departPos="base" type="pas_south__passenger"/>
    <trip id="pas_south_166" depart="1568.50" from="w_t" to="t_e" departLane="best" departSpeed="max" departPos="base" type="pas_south__passenger"/>
    <trip id="pas_south_167" depart="1577.95" from="w_t" to="t_w" departLane="best" departSpeed="max" departPos="base" type="pas_south__passenger"/>
    <trip id="pas_south_168" depart="1587.40" from="e_t" to="t_w" departLane="best" departSpeed="max" departPos="base" type="pas_south__passenger"/>
    <trip id="pas_south_169" depart="1596.85" from="n_t" to="t_n" departLane="best" departSpeed="max" departPos="base" type="pas_south__passenger"/>
    <trip id="pas_south_170" depart="1606.30" from="w_t" to="t_e" departLane="best" departSpeed="max" departPos="base" type="pas_south__passenger"/>
    <trip id="pas_south_171" depart="1615.75" from="e_t" to="t_e" departLane="best" departSpeed="max" departPos="base" type="pas_south__passenger"/>
    <trip id="pas_south_172" depart="1625.20" from="n_t" to="t_w" departLane="best" departSpeed="max" departPos="base" type="pas_south__passenger"/>
    <trip id="pas_south_173" depart="1634.65" from="w_t" to="t_n" departLane="best" departSpeed="max" departPos="base" type="pas_south__passenger"/>
    <trip id="pas_south_174" depart="1644.09" from="s_t" to="t_n" departLane="best" departSpeed="max" departPos="base" type="pas_south__passenger"/>
    <trip id="pas_south_175" depart="1653.54" from="w_t" to="t_s" departLane="best" departSpeed="max" departPos="base" type="pas_south__passenger"/>
    <trip id="pas_south_176" depart="1662.99" from="w_t" to="t_e" departLane="best" departSpeed="max" departPos="base" type="pas_south__passenger"/>
    <trip id="pas_south_177" depart="1672.44" from="w_t" to="t_e" departLane="best" departSpeed="max" departPos="base" type="pas_south__passenger"/>
    <trip id="pas_south_178" depart="1681.89" from="w_t" to="t_n" departLane="best" departSpeed="max" departPos="base" type="pas_south__passenger"/>
    <trip id="pas_south_179" depart="1691.34" from="e_t" to="t_n" departLane="best" departSpeed="max" departPos="base" type="pas_south__passenger"/>
    <trip id="pas_south_180" depart="1700.79" from="s_t" to="t_n" departLane="best" departSpeed="max" departPos="base" type="pas_south__passenger"/>
    <trip id="pas_south_181" depart="1710.24" from="s_t" to="t_s" departLane="best" departSpeed="max" departPos="base" type="pas_south__passenger"/>
    <trip id="pas_south_182" depart="1719.69" from="n_t" to="t_s" departLane="best" departSpeed="max" departPos="base" type="pas_south__passenger"/>
    <trip id="pas_south_183" depart="1729.13" from="n_t" to="t_s" departLane="best" departSpeed="max" departPos="base" type="pas_south__passenger"/>
    <trip id="pas_south_184" depart="1738.58" from="e_t" to="t_w" departLane="best" departSpeed="max" departPos="base" type="pas_south__passenger"/>
    <trip id="pas_south_185" depart="1748.03" from="s_t" to="t_s" departLane="best" departSpeed="max" departPos="base" type="pas_south__passenger"/>
    <trip id="pas_south_186" depart="1757.48" from="s_t" to="t_s" departLane="best" departSpeed="max" departPos="base" type="pas_south__passenger"/>
    <trip id="pas_south_187" depart="1766.93" from="n_t" to="t_e" departLane="best" departSpeed="max" departPos="base" type="pas_south__passenger"/>
    <trip id="pas_south_188" depart="1776.38" from="s_t" to="t_n" departLane="best" departSpeed="max" departPos="base" type="pas_south__passenger"/>
    <trip id="pas_south_189" depart="1785.83" from="n_t" to="t_w" departLane="best" departSpeed="max" departPos="base" type="pas_south__passenger"/>
    <trip id="pas_south_190" depart="1795.28" from="s_t" to="t_n" departLane="best" departSpeed="max" departPos="base" type="pas_south__passenger"/>
    <trip id="pas_south_191" depart="1804.72" from="n_t" to="t_n" departLane="best" departSpeed="max" departPos="base" type="pas_south__passenger"/>
    <trip id="pas_south_192" depart="1814.17" from="n_t" to="t_n" departLane="best" departSpeed="max" departPos="base" type="pas_south__passenger"/>
    <trip id="pas_south_193" depart="1823.62" from="e_t" to="t_n" departLane="best" departSpeed="max" departPos="base" type="pas_south__passenger"/>
    <trip id="pas_south_194" depart="1833.07" from="w_t" to="t_s" departLane="best" departSpeed="max" departPos="base" type="pas_south__passenger"/>
    <trip id="pas_south_195" depart="1842.52" from="w_t" to="t_s" departLane="best" departSpeed="max" departPos="base" type="pas_south__passenger"/>
    <trip id="pas_south_196" depart="1851.97" from="n_t" to="t_s" departLane="best" departSpeed="max" departPos="base" type="pas_south__passenger"/>