<routes xmlns:xsi="http://www.w3.org/2001/XMLSchema-instance" xsi:noNamespaceSchemaLocation="http://sumo.dlr.de/xsd/routes_file.xsd">
    <vType id="pas_north__passenger" vClass="passenger" />
    <trip id="pas_north_0" depart="0.00" from="n_t" to="t_e" departLane="best" departSpeed="max" departPos="base" type="pas_north__passenger" />
    <trip id="pas_north_1" depart="20.69" from="n_t" to="t_s" departLane="best" departSpeed="max" departPos="base" type="pas_north__passenger" />
    <trip id="pas_north_2" depart="41.38" from="n_t" to="t_w" departLane="best" departSpeed="max" departPos="base" type="pas_north__passenger" />
    <trip id="pas_north_3" depart="62.07" from="n_t" to="t_e" departLane="best" departSpeed="max" departPos="base" type="pas_north__passenger" />
    <trip id="pas_north_4" depart="82.76" from="n_t" to="t_s" departLane="best" departSpeed="max" departPos="base" type="pas_north__passenger" />
    <trip id="pas_north_5" depart="103.45" from="n_t" to="t_w" departLane="best" departSpeed="max" departPos="base" type="pas_north__passenger" />
    <trip id="pas_north_6" depart="124.14" from="n_t" to="t_w" departLane="best" departSpeed="max" departPos="base" type="pas_north__passenger" />
    <trip id="pas_north_7" depart="144.83" from="n_t" to="t_w" departLane="best" departSpeed="max" departPos="base" type="pas_north__passenger" />
    <trip id="pas_north_8" depart="165.52" from="n_t" to="t_s" departLane="best" departSpeed="max" departPos="base" type="pas_north__passenger" />
    <trip id="pas_north_9" depart="186.21" from="n_t" to="t_e" departLane="best" departSpeed="max" departPos="base" type="pas_north__passenger" />
    <trip id="pas_north_10" depart="206.90" from="n_t" to="t_e" departLane="best" departSpeed="max" departPos="base" type="pas_north__passenger" />
    <trip id="pas_north_11" depart="227.59" from="n_t" to="t_e" departLane="best" departSpeed="max" departPos="base" type="pas_north__passenger" />
    <trip id="pas_north_12" depart="248.27" from="n_t" to="t_e" departLane="best" departSpeed="max" departPos="base" type="pas_north__passenger" />
    <trip id="pas_north_13" depart="268.96" from="n_t" to="t_s" departLane="best" departSpeed="max" departPos="base" type="pas_north__passenger" />
    <trip id="pas_north_14" depart="289.65" from="n_t" to="t_w" departLane="best" departSpeed="max" departPos="base" type="pas_north__passenger" />
    <trip id="pas_north_15" depart="310.34" from="n_t" to="t_w" departLane="best" departSpeed="max" departPos="base" type="pas_north__passenger" />
    <trip id="pas_north_16" depart="331.03" from="n_t" to="t_e" departLane="best" departSpeed="max" departPos="base" type="pas_north__passenger" />
    <trip id="pas_north_17" depart="351.72" from="n_t" to="t_w" departLane="best" departSpeed="max" departPos="base" type="pas_north__passenger" />
    <trip id="pas_north_18" depart="372.41" from="n_t" to="t_w" departLane="best" departSpeed="max" departPos="base" type="pas_north__passenger" />
    <trip id="pas_north_19" depart="393.10" from="n_t" to="t_w" departLane="best" departSpeed="max" departPos="base" type="pas_north__passenger" />
    <trip id="pas_north_20" depart="413.79" from="n_t" to="t_w" departLane="best" departSpeed="max" departPos="base" type="pas_north__passenger" />
    <trip id="pas_north_21" depart="434.48" from="n_t" to="t_s" departLane="best" departSpeed="max" departPos="base" type="pas_north__passenger" />
    <trip id="pas_north_22" depart="455.17" from="n_t" to="t_e" departLane="best" departSpeed="max" departPos="base" type="pas_north__passenger" />
    <trip id="pas_north_23" depart="475.86" from="n_t" to="t_w" departLane="best" departSpeed="max" departPos="base" type="pas_north__passenger" />
    <trip id="pas_north_24" depart="496.55" from="n_t" to="t_e" departLane="best" departSpeed="max" departPos="base" type="pas_north__passenger" />
    <trip id="pas_north_25" depart="517.24" from="n_t" to="t_e" departLane="best" departSpeed="max" departPos="base" type="pas_north__passenger" />
    <trip id="pas_north_26" depart="537.93" from="n_t" to="t_w" departLane="best" departSpeed="max" departPos="base" type="pas_north__passenger" />
    <trip id="pas_north_27" depart="558.62" from="n_t" to="t_s" departLane="best" departSpeed="max" departPos="base" type="pas_north__passenger" />
    <trip id="pas_north_28" depart="579.31" from="n_t" to="t_w" departLane="best" departSpeed="max" departPos="base" type="pas_north__passenger" />
    <trip id="pas_north_29" depart="600.00" from="n_t" to="t_s" departLane="best" departSpeed="max" departPos="base" type="pas_north__passenger" />
    <trip id="pas_north_30" depart="620.69" from="n_t" to="t_s" departLane="best" departSpeed="max" departPos="base" type="pas_north__passenger" />
    <trip id="pas_north_31" depart="641.38" from="n_t" to="t_e" departLane="best" departSpeed="max" departPos="base" type="pas_north__passenger" />
    <trip id="pas_north_32" depart="662.07" from="n_t" to="t_e" departLane="best" departSpeed="max" departPos="base" type="pas_north__passenger" />
    <trip id="pas_north_33" depart="682.76" from="n_t" to="t_e" departLane="best" departSpeed="max" departPos="base" type="pas_north__passenger" />
    <trip id="pas_north_34" depart="703.44" from="n_t" to="t_w" departLane="best" departSpeed="max" departPos="base" type="pas_north__passenger" />
    <trip id="pas_north_35" depart="724.13" from="n_t" to="t_e" departLane="best" departSpeed="max" departPos="base" type="pas_north__passenger" />
    <trip id="pas_north_36" depart="744.82" from="n_t" to="t_s" departLane="best" departSpeed="max" departPos="base" type="pas_north__passenger" />
    <trip id="pas_north_37" depart="765.51" from="n_t" to="t_s" departLane="best" departSpeed="max" departPos="base" type="pas_north__passenger" />
    <trip id="pas_north_38" depart="786.20" from="n_t" to="t_s" departLane="best" departSpeed="max" departPos="base" type="pas_north__passenger" />
    <trip id="pas_north_39" depart="806.89" from="n_t" to="t_s" departLane="best" departSpeed="max" departPos="base" type="pas_north__passenger" />
    <trip id="pas_north_40" depart="827.58" from="n_t" to="t_s" departLane="best" departSpeed="max" departPos="base" type="pas_north__passenger" />
    <trip id="pas_north_41" depart="848.27" from="n_t" to="t_w" departLane="best" departSpeed="max" departPos="base" type="pas_north__passenger" />
    <trip id="pas_north_42" depart="868.96" from="n_t" to="t_w" departLane="best" departSpeed="max" departPos="base" type="pas_north__passenger" />
    <trip id="pas_north_43" depart="889.65" from="n_t" to="t_s" departLane="best" departSpeed="max" departPos="base" type="pas_north__passenger" />
    <trip id="pas_north_44" depart="910.34" from="n_t" to="t_s" departLane="best" departSpeed="max" departPos="base" type="pas_north__passenger" />
    <trip id="pas_north_45" depart="931.03" from="n_t" to="t_w" departLane="best" departSpeed="max" departPos="base" type="pas_north__passenger" />
    <trip id="pas_north_46" depart="951.72" from="n_t" to="t_w" departLane="best" departSpeed="max" departPos="base" type="pas_north__passenger" />
    <trip id="pas_north_47" depart="972.41" from="n_t" to="t_s" departLane="best" departSpeed="max" departPos="base" type="pas_north__passenger" />
    <trip id="pas_north_48" depart="993.10" from="n_t" to="t_e" departLane="best" departSpeed="max" departPos="base" type="pas_north__passenger" />
    <trip id="pas_north_49" depart="1013.79" from="n_t" to="t_e" departLane="best" departSpeed="max" departPos="base" type="pas_north__passenger" />
    <trip id="pas_north_50" depart="1034.48" from="n_t" to="t_w" departLane="best" departSpeed="max" departPos="base" type="pas_north__passenger" />
    <trip id="pas_north_51" depart="1055.17" from="n_t" to="t_e" departLane="best" departSpeed="max" departPos="base" type="pas_north__passenger" />
    <trip id="pas_north_52" depart="1075.86" from="n_t" to="t_e" departLane="best" departSpeed="max" departPos="base" type="pas_north__passenger" />
    <trip id="pas_north_53" depart="1096.55" from="n_t" to="t_s" departLane="best" departSpeed="max" departPos="base" type="pas_north__passenger" />
    <trip id="pas_north_54" depart="1117.24" from="n_t" to="t_w" departLane="best" departSpeed="max" departPos="base" type="pas_north__passenger" />
    <trip id="pas_north_55" depart="1137.93" from="n_t" to="t_s" departLane="best" departSpeed="max" departPos="base" type="pas_north__passenger" />
    <trip id="pas_north_56" depart="1158.61" from="n_t" to="t_w" departLane="best" departSpeed="max" departPos="base" type="pas_north__passenger" />
    <trip id="pas_north_57" depart="1179.30" from="n_t" to="t_s" departLane="best" departSpeed="max" departPos="base" type="pas_north__passenger" />
    <trip id="pas_north_58" depart="1199.99" from="n_t" to="t_e" departLane="best" departSpeed="max" departPos="base" type="pas_north__passenger" />
    <trip id="pas_north_59" depart="1220.68" from="n_t" to="t_w" departLane="best" departSpeed="max" departPos="base" type="pas_north__passenger" />
    <trip id="pas_north_60" depart="1241.37" from="n_t" to="t_w" departLane="best" departSpeed="max" departPos="base" type="pas_north__passenger" />
    <trip id="pas_north_61" depart="1262.06" from="n_t" to="t_s" departLane="best" departSpeed="max" departPos="base" type="pas_north__passenger" />
    <trip id="pas_north_62" depart="1282.75" from="n_t" to="t_w" departLane="best" departSpeed="max" departPos="base" type="pas_north__passenger" />
    <trip id="pas_north_63" depart="1303.44" from="n_t" to="t_w" departLane="best" departSpeed="max" departPos="base" type="pas_north__passenger" />
    <trip id="pas_north_64" depart="1324.13" from="n_t" to="t_e" departLane="best" departSpeed="max" departPos="base" type="pas_north__passenger" />
    <trip id="pas_north_65" depart="1344.82" from="n_t" to="t_w" departLane="best" departSpeed="max" departPos="base" type="pas_north__passenger" />
    <trip id="pas_north_66" depart="1365.51" from="n_t" to="t_e" departLane="best" departSpeed="max" departPos="base" type="pas_north__passenger" />
    <trip id="pas_north_67" depart="1386.20" from="n_t" to="t_w" departLane="best" departSpeed="max" departPos="base" type="pas_north__passenger" />
    <trip id="pas_north_68" depart="1406.89" from="n_t" to="t_s" departLane="best" departSpeed="max" departPos="base" type="pas_north__passenger" />
    <trip id="pas_north_69" depart="1427.58" from="n_t" to="t_e" departLane="best" departSpeed="max" departPos="base" type="pas_north__passenger" />
    <trip id="pas_north_70" depart="1448.27" from="n_t" to="t_e" departLane="best" departSpeed="max" departPos="base" type="pas_north__passenger" />
    <trip id="pas_north_71" depart="1468.96" from="n_t" to="t_s" departLane="best" departSpeed="max" departPos="base" type="pas_north__passenger" />
    <trip id="pas_north_72" depart="1489.65" from="n_t" to="t_w" departLane="best" departSpeed="max" departPos="base" type="pas_north__passenger" />
    <trip id="pas_north_73" depart="1510.34" from="n_t" to="t_s" departLane="best" departSpeed="max" departPos="base" type="pas_north__passenger" />
    <trip id="pas_north_74" depart="1531.03" from="n_t" to="t_s" departLane="best" departSpeed="max" departPos="base" type="pas_north__passenger" />
    <trip id="pas_north_75" depart="1551.72" from="n_t" to="t_e" departLane="best" departSpeed="max" departPos="base" type="pas_north__passenger" />
    <trip id="pas_north_76" depart="1572.41" from="n_t" to="t_e" departLane="best" departSpeed="max" departPos="base" type="pas_north__passenger" />
    <trip id="pas_north_77" depart="1593.10" from="n_t" to="t_e" departLane="best" departSpeed="max" departPos="base" type="pas_north__passenger" />
    <trip id="pas_north_78" depart="1613.79" from="n_t" to="t_w" departLane="best" departSpeed="max" departPos="base" type="pas_north__passenger" />
    <trip id="pas_north_79" depart="1634.47" from="n_t" to="t_w" departLane="best" departSpeed="max" departPos="base" type="pas_north__passenger" />
    <trip id="pas_north_80" depart="1655.16" from="n_t" to="t_s" departLane="best" departSpeed="max" departPos="base" type="pas_north__passenger" />
    <trip id="pas_north_81" depart="1675.85" from="n_t" to="t_e" departLane="best" departSpeed="max" departPos="base" type="pas_north__passenger" />
    <trip id="pas_north_82" depart="1696.54" from="n_t" to="t_w" departLane="best" departSpeed="max" departPos="base" type="pas_north__passenger" />
    <trip id="pas_north_83" depart="1717.23" from="n_t" to="t_e" departLane="best" departSpeed="max" departPos="base" type="pas_north__passenger" />
    <trip id="pas_north_84" depart="1737.92" from="n_t" to="t_s" departLane="best" departSpeed="max" departPos="base" type="pas_north__passenger" />
    <trip id="pas_north_85" depart="1758.61" from="n_t" to="t_e" departLane="best" departSpeed="max" departPos="base" type="pas_north__passenger" />
    <trip id="pas_north_86" depart="1779.30" from="n_t" to="t_s" departLane="best" departSpeed="max" departPos="base" type="pas_north__passenger" />
    <trip id="pas_north_87" depart="1799.99" from="n_t" to="t_s" departLane="best" departSpeed="max" departPos="base" type="pas_north__passenger" />
    <trip id="pas_north_88" depart="1820.68" from="n_t" to="t_w" departLane="best" departSpeed="max" departPos="base" type="pas_north__passenger" />
    <trip id="pas_north_89" depart="1841.37" from="n_t" to="t_e" departLane="best" departSpeed="max" departPos="base" type="pas_north__passenger" />
    <trip id="pas_north_90" depart="1862.06" from="n_t" to="t_e" departLane="best" departSpeed="max" departPos="base" type="pas_north__passenger" />
    <trip id="pas_north_91" depart="1882.75" from="n_t" to="t_e" departLane="best" departSpeed="max" departPos="base" type="pas_north__passenger" />
    <trip id="pas_north_92" depart="1903.44" from="n_t" to="t_s" departLane="best" departSpeed="max" departPos="base" type="pas_north__passenger" />
    <trip id="pas_north_93" depart="1924.13" from="n_t" to="t_s" departLane="best" departSpeed="max" departPos="base" type="pas_north__passenger" />
    <trip id="pas_north_94" depart="1944.82" from="n_t" to="t_e" departLane="best" departSpeed="max" departPos="base" type="pas_north__passenger" />
    <trip id="pas_north_95" depart="1965.51" from="n_t" to="t_s" departLane="best" departSpeed="max" departPos="base" type="pas_north__passenger" />
    <trip id="pas_north_96" depart="1986.20" from="n_t" to="t_w" departLane="best" departSpeed="max" departPos="base" type="pas_north__passenger" />
    <trip id="pas_north_97" depart="2006.89" from="n_t" to="t_w" departLane="best" departSpeed="max" departPos="base" type="pas_north__passenger" />
    <trip id="pas_north_98" depart="2027.58" from="n_t" to="t_s" departLane="best" departSpeed="max" departPos="base" type="pas_north__passenger" />
    <trip id="pas_north_99" depart="2048.27" from="n_t" to="t_e" departLane="best" departSpeed="max" departPos="base" type="pas_north__passenger" />
    <trip id="pas_north_100" depart="2068.96" from="n_t" to="t_e" departLane="best" departSpeed="max" departPos="base" type="pas_north__passenger" />
    <trip id="pas_north_101" depart="2089.64" from="n_t" to="t_e" departLane="best" departSpeed="max" departPos="base" type="pas_north__passenger" />
    <trip id="pas_north_102" depart="2110.33" from="n_t" to="t_w" departLane="best" departSpeed="max" departPos="base" type="pas_north__passenger" />
    <trip id="pas_north_103" depart="2131.02" from="n_t" to="t_s" departLane="best" departSpeed="max" departPos="base" type="pas_north__passenger" />
    <trip id="pas_north_104" depart="2151.71" from="n_t" to="t_w" departLane="best" departSpeed="max" departPos="base" type="pas_north__passenger" />
    <trip id="pas_north_105" depart="2172.40" from="n_t" to="t_w" departLane="best" departSpeed="max" departPos="base" type="pas_north__passenger" />
    <trip id="pas_north_106" depart="2193.09" from="n_t" to="t_s" departLane="best" departSpeed="max" departPos="base" type="pas_north__passenger" />
    <trip id="pas_north_107" depart="2213.78" from="n_t" to="t_w" departLane="best" departSpeed="max" departPos="base" type="pas_north__passenger" />
    <trip id="pas_north_108" depart="2234.47" from="n_t" to="t_w" departLane="best" departSpeed="max" departPos="base" type="pas_north__passenger" />
    <trip id="pas_north_109" depart="2255.16" from="n_t" to="t_e" departLane="best" departSpeed="max" departPos="base" type="pas_north__passenger" />
    <trip id="pas_north_110" depart="2275.85" from="n_t" to="t_e" departLane="best" departSpeed="max" departPos="base" type="pas_north__passenger" />
    <trip id="pas_north_111" depart="2296.54" from="n_t" to="t_e" departLane="best" departSpeed="max" departPos="base" type="pas_north__passenger" />
    <trip id="pas_north_112" depart="2317.23" from="n_t" to="t_s" departLane="best" departSpeed="max" departPos="base" type="pas_north__passenger" />
    <trip id="pas_north_113" depart="2337.92" from="n_t" to="t_e" departLane="best" departSpeed="max" departPos="base" type="pas_north__passenger" />
    <trip id="pas_north_114" depart="2358.61" from="n_t" to="t_w" departLane="best" departSpeed="max" departPos="base" type="pas_north__passenger" />
    <trip id="pas_north_115" depart="2379.30" from="n_t" to="t_s" departLane="best" departSpeed="max" departPos="base" type="pas_north__passenger" />
    <trip id="pas_north_116" depart="2399.99" from="n_t" to="t_w" departLane="best" departSpeed="max" departPos="base" type="pas_north__passenger" />
    <trip id="pas_north_117" depart="2420.68" from="n_t" to="t_e" departLane="best" departSpeed="max" departPos="base" type="pas_north__passenger" />
    <trip id="pas_north_118" depart="2441.37" from="n_t" to="t_s" departLane="best" departSpeed="max" departPos="base" type="pas_north__passenger" />
    <trip id="pas_north_119" depart="2462.06" from="n_t" to="t_e" departLane="best" departSpeed="max" departPos="base" type="pas_north__passenger" />
    <trip id="pas_north_120" depart="2482.75" from="n_t" to="t_s" departLane="best" departSpeed="max" departPos="base" type="pas_north__passenger" />
    <trip id="pas_north_121" depart="2503.44" from="n_t" to="t_w" departLane="best" departSpeed="max" departPos="base" type="pas_north__passenger" />
    <trip id="pas_north_122" depart="2524.13" from="n_t" to="t_e" departLane="best" departSpeed="max" departPos="base" type="pas_north__passenger" />
    <trip id="pas_north_123" depart="2544.81" from="n_t" to="t_e" departLane="best" departSpeed="max" departPos="base" type="pas_north__passenger" />
    <trip id="pas_north_124" depart="2565.50" from="n_t" to="t_e" departLane="best" departSpeed="max" departPos="base" type="pas_north__passenger" />
    <trip id="pas_north_125" depart="2586.19" from="n_t" to="t_s" departLane="best" departSpeed="max" departPos="base" type="pas_north__passenger" />
    <trip id="pas_north_126" depart="2606.88" from="n_t" to="t_e" departLane="best" departSpeed="max" departPos="base" type="pas_north__passenger" />
    <trip id="pas_north_127" depart="2627.57" from="n_t" to="t_e" departLane="best" departSpeed="max" departPos="base" type="pas_north__passenger" />
    <trip id="pas_north_128" depart="2648.26" from="n_t" to="t_e" departLane="best" departSpeed="max" departPos="base" type="pas_north__passenger" />
    <trip id="pas_north_129" depart="2668.95" from="n_t" to="t_w" departLane="best" departSpeed="max" departPos="base" type="pas_north__passenger" />
    <trip id="pas_north_130" depart="2689.64" from="n_t" to="t_e" departLane="best" departSpeed="max" departPos="base" type="pas_north__passenger" />
    <trip id="pas_north_131" depart="2710.33" from="n_t" to="t_s" departLane="best" departSpeed="max" departPos="base" type="pas_north__passenger" />
    <trip id="pas_north_132" depart="2731.02" from="n_t" to="t_s" departLane="best" departSpeed="max" departPos="base" type="pas_north__passenger" />
    <trip id="pas_north_133" depart="2751.71" from="n_t" to="t_w" departLane="best" departSpeed="max" departPos="base" type="pas_north__passenger" />
    <trip id="pas_north_134" depart="2772.40" from="n_t" to="t_w" departLane="best" departSpeed="max" departPos="base" type="pas_north__passenger" />
    <trip id="pas_north_135" depart="2793.09" from="n_t" to="t_w" departLane="best" departSpeed="max" departPos="base" type="pas_north__passenger" />
    <trip id="pas_north_136" depart="2813.78" from="n_t" to="t_w" departLane="best" departSpeed="max" departPos="base" type="pas_north__passenger" />
    <trip id="pas_north_137" depart="2834.47" from="n_t" to="t_e" departLane="best" departSpeed="max" departPos="base" type="pas_north__passenger" />
    <trip id="pas_north_138" depart="2855.16" from="n_t" to="t_w" departLane="best" departSpeed="max" departPos="base" type="pas_north__passenger" />
    <trip id="pas_north_139" depart="2875.85" from="n_t" to="t_e" departLane="best" departSpeed="max" departPos="base" type="pas_north__passenger" />
    <trip id="pas_north_140" depart="2896.54" from="n_t" to="t_e" departLane="best" departSpeed="max" departPos="base" type="pas_north__passenger" />
    <trip id="pas_north_141" depart="2917.23" from="n_t" to="t_e" departLane="best" departSpeed="max" departPos="base" type="pas_north__passenger" />
    <trip id="pas_north_142" depart="2937.92" from="n_t" to="t_w" departLane="best" departSpeed="max" departPos="base" type="pas_north__passenger" />
    <trip id="pas_north_143" depart="2958.61" from="n_t" to="t_s" departLane="best" departSpeed="max" departPos="base" type="pas_north__passenger" />
    <trip id="pas_north_144" depart="2979.30" from="n_t" to="t_w" departLane="best" departSpeed="max" departPos="base" type="pas_north__passenger" />
    <trip id="pas_north_145" depart="2999.98" from="n_t" to="t_w" departLane="best" departSpeed="max" departPos="base" type="pas_north__passenger" />
    <trip id="pas_north_146" depart="3020.67" from="n_t" to="t_s" departLane="best" departSpeed="max" departPos="base" type="pas_north__passenger" />
    <trip id="pas_north_147" depart="3041.36" from="n_t" to="t_e" departLane="best" departSpeed="max" departPos="base" type="pas_north__passenger" />
    <trip id="pas_north_148" depart="3062.05" from="n_t" to="t_w" departLane="best" departSpeed="max" departPos="base" type="pas_north__passenger" />
    <trip id="pas_north_149" depart="3082.74" from="n_t" to="t_s" departLane="best" departSpeed="max" departPos="base" type="pas_north__passenger" />
    <trip id="pas_north_150" depart="3103.43" from="n_t" to="t_e" departLane="best" departSpeed="max" departPos="base" type="pas_north__passenger" />
    <trip id="pas_north_151" depart="3124.12" from="n_t" to="t_e" departLane="best" departSpeed="max" departPos="base" type="pas_north__passenger" />
    <trip id="pas_north_152" depart="3144.81" from="n_t" to="t_w" departLane="best" departSpeed="max" departPos="base" type="pas_north__passenger" />
    <trip id="pas_north_153" depart="3165.50" from="n_t" to="t_w" departLane="best" departSpeed="max" departPos="base" type="pas_north__passenger" />
    <trip id="pas_north_154" depart="3186.19" from="n_t" to="t_s" departLane="best" departSpeed="max" departPos="base" type="pas_north__passenger" />
    <trip id="pas_north_155" depart="3206.88" from="n_t" to="t_w" departLane="best" departSpeed="max" departPos="base" type="pas_north__passenger" />
    <trip id="pas_north_156" depart="3227.57" from="n_t" to="t_s" departLane="best" departSpeed="max" departPos="base" type="pas_north__passenger" />
    <trip id="pas_north_157" depart="3248.26" from="n_t" to="t_s" departLane="best" departSpeed="max" departPos="base" type="pas_north__passenger" />
    <trip id="pas_north_158" depart="3268.95" from="n_t" to="t_s" departLane="best" departSpeed="max" departPos="base" type="pas_north__passenger" />
    <trip id="pas_north_159" depart="3289.64" from="n_t" to="t_w" departLane="best" departSpeed="max" departPos="base" type="pas_north__passenger" />
    <trip id="pas_north_160" depart="3310.33" from="n_t" to="t_w" departLane="best" departSpeed="max" departPos="base" type="pas_north__passenger" />
    <trip id="pas_north_161" depart="3331.02" from="n_t" to="t_e" departLane="best" departSpeed="max" departPos="base" type="pas_north__passenger" />
    <trip id="pas_north_162" depart="3351.71" from="n_t" to="t_w" departLane="best" departSpeed="max" departPos="base" type="pas_north__passenger" />
    <trip id="pas_north_163" depart="3372.40" from="n_t" to="t_e" departLane="best" departSpeed="max" departPos="base" type="pas_north__passenger" />
    <trip id="pas_north_164" depart="3393.09" from="n_t" to="t_e" departLane="best" departSpeed="max" departPos="base" type="pas_north__passenger" />
    <trip id="pas_north_165" depart="3413.78" from="n_t" to="t_e" departLane="best" departSpeed="max" departPos="base" type="pas_north__passenger" />
    <trip id="pas_north_166" depart="3434.47" from="n_t" to="t_w" departLane="best" departSpeed="max" departPos="base" type="pas_north__passenger" />
    <trip id="pas_north_167" depart="3455.16" from="n_t" to="t_s" departLane="best" departSpeed="max" departPos="base" type="pas_north__passenger" />
    <trip id="pas_north_168" depart="3475.84" from="n_t" to="t_w" departLane="best" departSpeed="max" departPos="base" type="pas_north__passenger" />
    <trip id="pas_north_169" depart="3496.53" from="n_t" to="t_w" departLane="best" departSpeed="max" departPos="base" type="pas_north__passenger" />
    <trip id="pas_north_170" depart="3517.22" from="n_t" to="t_w" departLane="best" departSpeed="max" departPos="base" type="pas_north__passenger" />
    <trip id="pas_north_171" depart="3537.91" from="n_t" to="t_s" departLane="best" departSpeed="max" departPos="base" type="pas_north__passenger" />
    <trip id="pas_north_172" depart="3558.60" from="n_t" to="t_s" departLane="best" departSpeed="max" departPos="base" type="pas_north__passenger" />
    <trip id="pas_north_173" depart="3579.29" from="n_t" to="t_s" departLane="best" departSpeed="max" departPos="base" type="pas_north__passenger" />
    <trip id="pas_north_174" depart="3599.98" from="n_t" to="t_s" departLane="best" departSpeed="max" departPos="base" type="pas_north__passenger" />
</routes>