<?xml version="1.0" encoding="UTF-8"?>

<!-- generated on 2024-06-01 12:35:16.907173 by randomTrips.py v1_19_0+0000-baa66a0f364
<configuration>
    <net-file value="single-intersection-new.net.xml"/>
    <additional-files value="osm.add.xml"/>
    <output-trip-file value="osm.west.trips.xml"/>
    <prefix value="pas_west_"/>
    <trip-attributes value="departLane=&quot;best&quot; departSpeed=&quot;max&quot; departPos=&quot;base&quot;"/>
    <vehicle-class value="passenger"/>
    <period value="7.331975560081"/>
</configuration>
-->

<routes xmlns:xsi="http://www.w3.org/2001/XMLSchema-instance" xsi:noNamespaceSchemaLocation="http://sumo.dlr.de/xsd/routes_file.xsd">
    <vType id="pas_west__passenger" vClass="passenger"/>
    <trip id="pas_west_0" depart="0.00" from="s_t" to="t_e" departLane="best" departSpeed="max" departPos="base" type="pas_west__passenger"/>
    <trip id="pas_west_1" depart="7.33" from="n_t" to="t_e" departLane="best" departSpeed="max" departPos="base" type="pas_west__passenger"/>
    <trip id="pas_west_2" depart="14.66" from="s_t" to="t_s" departLane="best" departSpeed="max" departPos="base" type="pas_west__passenger"/>
    <trip id="pas_west_3" depart="22.00" from="w_t" to="t_e" departLane="best" departSpeed="max" departPos="base" type="pas_west__passenger"/>
    <trip id="pas_west_4" depart="29.33" from="n_t" to="t_e" departLane="best" departSpeed="max" departPos="base" type="pas_west__passenger"/>
    <trip id="pas_west_5" depart="36.66" from="e_t" to="t_s" departLane="best" departSpeed="max" departPos="base" type="pas_west__passenger"/>
    <trip id="pas_west_6" depart="43.99" from="e_t" to="t_e" departLane="best" departSpeed="max" departPos="base" type="pas_west__passenger"/>
    <trip id="pas_west_7" depart="51.32" from="s_t" to="t_s" departLane="best" departSpeed="max" departPos="base" type="pas_west__passenger"/>
    <trip id="pas_west_8" depart="58.66" from="e_t" to="t_s" departLane="best" departSpeed="max" departPos="base" type="pas_west__passenger"/>
    <trip id="pas_west_9" depart="65.99" from="w_t" to="t_e" departLane="best" departSpeed="max" departPos="base" type="pas_west__passenger"/>
    <trip id="pas_west_10" depart="73.32" from="w_t" to="t_s" departLane="best" departSpeed="max" departPos="base" type="pas_west__passenger"/>
    <trip id="pas_west_11" depart="80.65" from="n_t" to="t_e" departLane="best" departSpeed="max" departPos="base" type="pas_west__passenger"/>
    <trip id="pas_west_12" depart="87.98" from="w_t" to="t_n" departLane="best" departSpeed="max" departPos="base" type="pas_west__passenger"/>
    <trip id="pas_west_13" depart="95.32" from="e_t" to="t_e" departLane="best" departSpeed="max" departPos="base" type="pas_west__passenger"/>
    <trip id="pas_west_14" depart="102.65" from="w_t" to="t_s" departLane="best" departSpeed="max" departPos="base" type="pas_west__passenger"/>
    <trip id="pas_west_15" depart="109.98" from="w_t" to="t_s" departLane="best" departSpeed="max" departPos="base" type="pas_west__passenger"/>
    <trip id="pas_west_16" depart="117.31" from="s_t" to="t_w" departLane="best" departSpeed="max" departPos="base" type="pas_west__passenger"/>
    <trip id="pas_west_17" depart="124.64" from="n_t" to="t_s" departLane="best" departSpeed="max" departPos="base" type="pas_west__passenger"/>
    <trip id="pas_west_18" depart="131.98" from="w_t" to="t_s" departLane="best" departSpeed="max" departPos="base" type="pas_west__passenger"/>
    <trip id="pas_west_19" depart="139.31" from="w_t" to="t_s" departLane="best" departSpeed="max" departPos="base" type="pas_west__passenger"/>
    <trip id="pas_west_20" depart="146.64" from="s_t" to="t_e" departLane="best" departSpeed="max" departPos="base" type="pas_west__passenger"/>
    <trip id="pas_west_21" depart="153.97" from="e_t" to="t_n" departLane="best" departSpeed="max" departPos="base" type="pas_west__passenger"/>
    <trip id="pas_west_22" depart="161.30" from="e_t" to="t_e" departLane="best" departSpeed="max" departPos="base" type="pas_west__passenger"/>
    <trip id="pas_west_23" depart="168.64" from="e_t" to="t_n" departLane="best" departSpeed="max" departPos="base" type="pas_west__passenger"/>
    <trip id="pas_west_24" depart="175.97" from="s_t" to="t_n" departLane="best" departSpeed="max" departPos="base" type="pas_west__passenger"/>
    <trip id="pas_west_25" depart="183.30" from="n_t" to="t_e" departLane="best" departSpeed="max" departPos="base" type="pas_west__passenger"/>
    <trip id="pas_west_26" depart="190.63" from="n_t" to="t_w" departLane="best" departSpeed="max" departPos="base" type="pas_west__passenger"/>
    <trip id="pas_west_27" depart="197.96" from="s_t" to="t_s" departLane="best" departSpeed="max" departPos="base" type="pas_west__passenger"/>
    <trip id="pas_west_28" depart="205.30" from="e_t" to="t_s" departLane="best" departSpeed="max" departPos="base" type="pas_west__passenger"/>
    <trip id="pas_west_29" depart="212.63" from="e_t" to="t_n" departLane="best" departSpeed="max" departPos="base" type="pas_west__passenger"/>
    <trip id="pas_west_30" depart="219.96" from="w_t" to="t_s" departLane="best" departSpeed="max" departPos="base" type="pas_west__passenger"/>
    <trip id="pas_west_31" depart="227.29" from="s_t" to="t_s" departLane="best" departSpeed="max" departPos="base" type="pas_west__passenger"/>
    <trip id="pas_west_32" depart="234.62" from="w_t" to="t_w" departLane="best" departSpeed="max" departPos="base" type="pas_west__passenger"/>
    <trip id="pas_west_33" depart="241.96" from="e_t" to="t_e" departLane="best" departSpeed="max" departPos="base" type="pas_west__passenger"/>
    <trip id="pas_west_34" depart="249.29" from="n_t" to="t_n" departLane="best" departSpeed="max" departPos="base" type="pas_west__passenger"/>
    <trip id="pas_west_35" depart="256.62" from="e_t" to="t_w" departLane="best" departSpeed="max" departPos="base" type="pas_west__passenger"/>
    <trip id="pas_west_36" depart="263.95" from="w_t" to="t_n" departLane="best" departSpeed="max" departPos="base" type="pas_west__passenger"/>
    <trip id="pas_west_37" depart="271.28" from="s_t" to="t_n" departLane="best" departSpeed="max" departPos="base" type="pas_west__passenger"/>
    <trip id="pas_west_38" depart="278.62" from="w_t" to="t_n" departLane="best" departSpeed="max" departPos="base" type="pas_west__passenger"/>
    <trip id="pas_west_39" depart="285.95" from="n_t" to="t_e" departLane="best" departSpeed="max" departPos="base" type="pas_west__passenger"/>
    <trip id="pas_west_40" depart="293.28" from="s_t" to="t_n" departLane="best" departSpeed="max" departPos="base" type="pas_west__passenger"/>
    <trip id="pas_west_41" depart="300.61" from="s_t" to="t_w" departLane="best" departSpeed="max" departPos="base" type="pas_west__passenger"/>
    <trip id="pas_west_42" depart="307.94" from="n_t" to="t_e" departLane="best" departSpeed="max" departPos="base" type="pas_west__passenger"/>
    <trip id="pas_west_43" depart="315.27" from="w_t" to="t_s" departLane="best" departSpeed="max" departPos="base" type="pas_west__passenger"/>
    <trip id="pas_west_44" depart="322.61" from="e_t" to="t_e" departLane="best" departSpeed="max" departPos="base" type="pas_west__passenger"/>
    <trip id="pas_west_45" depart="329.94" from="e_t" to="t_s" departLane="best" departSpeed="max" departPos="base" type="pas_west__passenger"/>
    <trip id="pas_west_46" depart="337.27" from="w_t" to="t_n" departLane="best" departSpeed="max" departPos="base" type="pas_west__passenger"/>
    <trip id="pas_west_47" depart="344.60" from="e_t" to="t_n" departLane="best" departSpeed="max" departPos="base" type="pas_west__passenger"/>
    <trip id="pas_west_48" depart="351.93" from="w_t" to="t_s" departLane="best" departSpeed="max" departPos="base" type="pas_west__passenger"/>
    <trip id="pas_west_49" depart="359.27" from="w_t" to="t_w" departLane="best" departSpeed="max" departPos="base" type="pas_west__passenger"/>
    <trip id="pas_west_50" depart="366.60" from="e_t" to="t_s" departLane="best" departSpeed="max" departPos="base" type="pas_west__passenger"/>
    <trip id="pas_west_51" depart="373.93" from="s_t" to="t_s" departLane="best" departSpeed="max" departPos="base" type="pas_west__passenger"/>
    <trip id="pas_west_52" depart="381.26" from="n_t" to="t_s" departLane="best" departSpeed="max" departPos="base" type="pas_west__passenger"/>
    <trip id="pas_west_53" depart="388.59" from="e_t" to="t_n" departLane="best" departSpeed="max" departPos="base" type="pas_west__passenger"/>
    <trip id="pas_west_54" depart="395.93" from="n_t" to="t_w" departLane="best" departSpeed="max" departPos="base" type="pas_west__passenger"/>
    <trip id="pas_west_55" depart="403.26" from="w_t" to="t_n" departLane="best" departSpeed="max" departPos="base" type="pas_west__passenger"/>
    <trip id="pas_west_56" depart="410.59" from="s_t" to="t_e" departLane="best" departSpeed="max" departPos="base" type="pas_west__passenger"/>
    <trip id="pas_west_57" depart="417.92" from="w_t" to="t_w" departLane="best" departSpeed="max" departPos="base" type="pas_west__passenger"/>
    <trip id="pas_west_58" depart="425.25" from="n_t" to="t_s" departLane="best" departSpeed="max" departPos="base" type="pas_west__passenger"/>
    <trip id="pas_west_59" depart="432.59" from="s_t" to="t_e" departLane="best" departSpeed="max" departPos="base" type="pas_west__passenger"/>
    <trip id="pas_west_60" depart="439.92" from="w_t" to="t_s" departLane="best" departSpeed="max" departPos="base" type="pas_west__passenger"/>
    <trip id="pas_west_61" depart="447.25" from="w_t" to="t_s" departLane="best" departSpeed="max" departPos="base" type="pas_west__passenger"/>
    <trip id="pas_west_62" depart="454.58" from="e_t" to="t_n" departLane="best" departSpeed="max" departPos="base" type="pas_west__passenger"/>
    <trip id="pas_west_63" depart="461.91" from="e_t" to="t_w" departLane="best" departSpeed="max" departPos="base" type="pas_west__passenger"/>
    <trip id="pas_west_64" depart="469.25" from="w_t" to="t_w" departLane="best" departSpeed="max" departPos="base" type="pas_west__passenger"/>
    <trip id="pas_west_65" depart="476.58" from="n_t" to="t_e" departLane="best" departSpeed="max" departPos="base" type="pas_west__passenger"/>
    <trip id="pas_west_66" depart="483.91" from="w_t" to="t_w" departLane="best" departSpeed="max" departPos="base" type="pas_west__passenger"/>
    <trip id="pas_west_67" depart="491.24" from="e_t" to="t_n" departLane="best" departSpeed="max" departPos="base" type="pas_west__passenger"/>
    <trip id="pas_west_68" depart="498.57" from="e_t" to="t_w" departLane="best" departSpeed="max" departPos="base" type="pas_west__passenger"/>
    <trip id="pas_west_69" depart="505.91" from="w_t" to="t_e" departLane="best" departSpeed="max" departPos="base" type="pas_west__passenger"/>
    <trip id="pas_west_70" depart="513.24" from="n_t" to="t_s" departLane="best" departSpeed="max" departPos="base" type="pas_west__passenger"/>
    <trip id="pas_west_71" depart="520.57" from="n_t" to="t_w" departLane="best" departSpeed="max" departPos="base" type="pas_west__passenger"/>
    <trip id="pas_west_72" depart="527.90" from="n_t" to="t_e" departLane="best" departSpeed="max" departPos="base" type="pas_west__passenger"/>
    <trip id="pas_west_73" depart="535.23" from="s_t" to="t_s" departLane="best" departSpeed="max" departPos="base" type="pas_west__passenger"/>
    <trip id="pas_west_74" depart="542.57" from="e_t" to="t_n" departLane="best" departSpeed="max" departPos="base" type="pas_west__passenger"/>
    <trip id="pas_west_75" depart="549.90" from="w_t" to="t_s" departLane="best" departSpeed="max" departPos="base" type="pas_west__passenger"/>
    <trip id="pas_west_76" depart="557.23" from="n_t" to="t_s" departLane="best" departSpeed="max" departPos="base" type="pas_west__passenger"/>
    <trip id="pas_west_77" depart="564.56" from="e_t" to="t_e" departLane="best" departSpeed="max" departPos="base" type="pas_west__passenger"/>
    <trip id="pas_west_78" depart="571.89" from="n_t" to="t_s" departLane="best" departSpeed="max" departPos="base" type="pas_west__passenger"/>
    <trip id="pas_west_79" depart="579.23" from="e_t" to="t_e" departLane="best" departSpeed="max" departPos="base" type="pas_west__passenger"/>
    <trip id="pas_west_80" depart="586.56" from="e_t" to="t_s" departLane="best" departSpeed="max" departPos="base" type="pas_west__passenger"/>
    <trip id="pas_west_81" depart="593.89" from="e_t" to="t_w" departLane="best" departSpeed="max" departPos="base" type="pas_west__passenger"/>
    <trip id="pas_west_82" depart="601.22" from="w_t" to="t_e" departLane="best" departSpeed="max" departPos="base" type="pas_west__passenger"/>
    <trip id="pas_west_83" depart="608.55" from="e_t" to="t_s" departLane="best" departSpeed="max" departPos="base" type="pas_west__passenger"/>
    <trip id="pas_west_84" depart="615.89" from="e_t" to="t_e" departLane="best" departSpeed="max" departPos="base" type="pas_west__passenger"/>
    <trip id="pas_west_85" depart="623.22" from="w_t" to="t_s" departLane="best" departSpeed="max" departPos="base" type="pas_west__passenger"/>
    <trip id="pas_west_86" depart="630.55" from="n_t" to="t_w" departLane="best" departSpeed="max" departPos="base" type="pas_west__passenger"/>
    <trip id="pas_west_87" depart="637.88" from="w_t" to="t_e" departLane="best" departSpeed="max" departPos="base" type="pas_west__passenger"/>
    <trip id="pas_west_88" depart="645.21" from="e_t" to="t_n" departLane="best" departSpeed="max" departPos="base" type="pas_west__passenger"/>
    <trip id="pas_west_89" depart="652.55" from="n_t" to="t_n" departLane="best" departSpeed="max" departPos="base" type="pas_west__passenger"/>
    <trip id="pas_west_90" depart="659.88" from="s_t" to="t_s" departLane="best" departSpeed="max" departPos="base" type="pas_west__passenger"/>
    <trip id="pas_west_91" depart="667.21" from="w_t" to="t_e" departLane="best" departSpeed="max" departPos="base" type="pas_west__passenger"/>
    <trip id="pas_west_92" depart="674.54" from="n_t" to="t_n" departLane="best" departSpeed="max" departPos="base" type="pas_west__passenger"/>
    <trip id="pas_west_93" depart="681.87" from="w_t" to="t_e" departLane="best" departSpeed="max" departPos="base" type="pas_west__passenger"/>
    <trip id="pas_west_94" depart="689.21" from="e_t" to="t_n" departLane="best" departSpeed="max" departPos="base" type="pas_west__passenger"/>
    <trip id="pas_west_95" depart="696.54" from="n_t" to="t_n" departLane="best" departSpeed="max" departPos="base" type="pas_west__passenger"/>
    <trip id="pas_west_96" depart="703.87" from="e_t" to="t_w" departLane="best" departSpeed="max" departPos="base" type="pas_west__passenger"/>
    <trip id="pas_west_97" depart="711.20" from="n_t" to="t_w" departLane="best" departSpeed="max" departPos="base" type="pas_west__passenger"/>
    <trip id="pas_west_98" depart="718.53" from="s_t" to="t_e" departLane="best" departSpeed="max" departPos="base" type="pas_west__passenger"/>
    <trip id="pas_west_99" depart="725.87" from="w_t" to="t_w" departLane="best" departSpeed="max" departPos="base" type="pas_west__passenger"/>
    <trip id="pas_west_100" depart="733.20" from="w_t" to="t_w" departLane="best" departSpeed="max" departPos="base" type="pas_west__passenger"/>
    <trip id="pas_west_101" depart="740.53" from="w_t" to="t_e" departLane="best" departSpeed="max" departPos="base" type="pas_west__passenger"/>
    <trip id="pas_west_102" depart="747.86" from="n_t" to="t_e" departLane="best" departSpeed="max" departPos="base" type="pas_west__passenger"/>
    <trip id="pas_west_103" depart="755.19" from="n_t" to="t_e" departLane="best" departSpeed="max" departPos="base" type="pas_west__passenger"/>
    <trip id="pas_west_104" depart="762.53" from="n_t" to="t_w" departLane="best" departSpeed="max" departPos="base" type="pas_west__passenger"/>
    <trip id="pas_west_105" depart="769.86" from="n_t" to="t_w" departLane="best" departSpeed="max" departPos="base" type="pas_west__passenger"/>
    <trip id="pas_west_106" depart="777.19" from="n_t" to="t_n" departLane="best" departSpeed="max" departPos="base" type="pas_west__passenger"/>
    <trip id="pas_west_107" depart="784.52" from="w_t" to="t_w" departLane="best" departSpeed="max" departPos="base" type="pas_west__passenger"/>
    <trip id="pas_west_108" depart="791.85" from="s_t" to="t_s" departLane="best" departSpeed="max" departPos="base" type="pas_west__passenger"/>
    <trip id="pas_west_109" depart="799.19" from="e_t" to="t_n" departLane="best" departSpeed="max" departPos="base" type="pas_west__passenger"/>
    <trip id="pas_west_110" depart="806.52" from="w_t" to="t_s" departLane="best" departSpeed="max" departPos="base" type="pas_west__passenger"/>
    <trip id="pas_west_111" depart="813.85" from="s_t" to="t_s" departLane="best" departSpeed="max" departPos="base" type="pas_west__passenger"/>
    <trip id="pas_west_112" depart="821.18" from="e_t" to="t_s" departLane="best" departSpeed="max" departPos="base" type="pas_west__passenger"/>
    <trip id="pas_west_113" depart="828.51" from="s_t" to="t_w" departLane="best" departSpeed="max" departPos="base" type="pas_west__passenger"/>
    <trip id="pas_west_114" depart="835.85" from="e_t" to="t_w" departLane="best" departSpeed="max" departPos="base" type="pas_west__passenger"/>
    <trip id="pas_west_115" depart="843.18" from="e_t" to="t_e" departLane="best" departSpeed="max" departPos="base" type="pas_west__passenger"/>
    <trip id="pas_west_116" depart="850.51" from="s_t" to="t_s" departLane="best" departSpeed="max" departPos="base" type="pas_west__passenger"/>
    <trip id="pas_west_117" depart="857.84" from="e_t" to="t_e" departLane="best" departSpeed="max" departPos="base" type="pas_west__passenger"/>
    <trip id="pas_west_118" depart="865.17" from="w_t" to="t_e" departLane="best" departSpeed="max" departPos="base" type="pas_west__passenger"/>
    <trip id="pas_west_119" depart="872.51" from="s_t" to="t_s" departLane="best" departSpeed="max" departPos="base" type="pas_west__passenger"/>
    <trip id="pas_west_120" depart="879.84" from="n_t" to="t_s" departLane="best" departSpeed="max" departPos="base" type="pas_west__passenger"/>
    <trip id="pas_west_121" depart="887.17" from="s_t" to="t_w" departLane="best" departSpeed="max" departPos="base" type="pas_west__passenger"/>
    <trip id="pas_west_122" depart="894.50" from="e_t" to="t_s" departLane="best" departSpeed="max" departPos="base" type="pas_west__passenger"/>
    <trip id="pas_west_123" depart="901.83" from="e_t" to="t_n" departLane="best" departSpeed="max" departPos="base" type="pas_west__passenger"/>
    <trip id="pas_west_124" depart="909.16" from="s_t" to="t_n" departLane="best" departSpeed="max" departPos="base" type="pas_west__passenger"/>
    <trip id="pas_west_125" depart="916.50" from="n_t" to="t_w" departLane="best" departSpeed="max" departPos="base" type="pas_west__passenger"/>
    <trip id="pas_west_126" depart="923.83" from="e_t" to="t_n" departLane="best" departSpeed="max" departPos="base" type="pas_west__passenger"/>
    <trip id="pas_west_127" depart="931.16" from="w_t" to="t_w" departLane="best" departSpeed="max" departPos="base" type="pas_west__passenger"/>
    <trip id="pas_west_128" depart="938.49" from="e_t" to="t_e" departLane="best" departSpeed="max" departPos="base" type="pas_west__passenger"/>
    <trip id="pas_west_129" depart="945.82" from="n_t" to="t_w" departLane="best" departSpeed="max" departPos="base" type="pas_west__passenger"/>
    <trip id="pas_west_130" depart="953.16" from="w_t" to="t_w" departLane="best" departSpeed="max" departPos="base" type="pas_west__passenger"/>
    <trip id="pas_west_131" depart="960.49" from="n_t" to="t_e" departLane="best" departSpeed="max" departPos="base" type="pas_west__passenger"/>
    <trip id="pas_west_132" depart="967.82" from="w_t" to="t_s" departLane="best" departSpeed="max" departPos="base" type="pas_west__passenger"/>
    <trip id="pas_west_133" depart="975.15" from="s_t" to="t_w" departLane="best" departSpeed="max" departPos="base" type="pas_west__passenger"/>
    <trip id="pas_west_134" depart="982.48" from="s_t" to="t_e" departLane="best" departSpeed="max" departPos="base" type="pas_west__passenger"/>
    <trip id="pas_west_135" depart="989.82" from="w_t" to="t_n" departLane="best" departSpeed="max" departPos="base" type="pas_west__passenger"/>
    <trip id="pas_west_136" depart="997.15" from="s_t" to="t_w" departLane="best" departSpeed="max" departPos="base" type="pas_west__passenger"/>
    <trip id="pas_west_137" depart="1004.48" from="e_t" to="t_e" departLane="best" departSpeed="max" departPos="base" type="pas_west__passenger"/>
    <trip id="pas_west_138" depart="1011.81" from="e_t" to="t_s" departLane="best" departSpeed="max" departPos="base" type="pas_west__passenger"/>
    <trip id="pas_west_139" depart="1019.14" from="n_t" to="t_s" departLane="best" departSpeed="max" departPos="base" type="pas_west__passenger"/>
    <trip id="pas_west_140" depart="1026.48" from="s_t" to="t_e" departLane="best" departSpeed="max" departPos="base" type="pas_west__passenger"/>
    <trip id="pas_west_141" depart="1033.81" from="s_t" to="t_n" departLane="best" departSpeed="max" departPos="base" type="pas_west__passenger"/>
    <trip id="pas_west_142" depart="1041.14" from="n_t" to="t_w" departLane="best" departSpeed="max" departPos="base" type="pas_west__passenger"/>
    <trip id="pas_west_143" depart="1048.47" from="w_t" to="t_e" departLane="best" departSpeed="max" departPos="base" type="pas_west__passenger"/>
    <trip id="pas_west_144" depart="1055.80" from="n_t" to="t_n" departLane="best" departSpeed="max" departPos="base" type="pas_west__passenger"/>
    <trip id="pas_west_145" depart="1063.14" from="e_t" to="t_w" departLane="best" departSpeed="max" departPos="base" type="pas_west__passenger"/>
    <trip id="pas_west_146" depart="1070.47" from="s_t" to="t_n" departLane="best" departSpeed="max" departPos="base" type="pas_west__passenger"/>
    <trip id="pas_west_147" depart="1077.80" from="s_t" to="t_s" departLane="best" departSpeed="max" departPos="base" type="pas_west__passenger"/>
    <trip id="pas_west_148" depart="1085.13" from="n_t" to="t_e" departLane="best" departSpeed="max" departPos="base" type="pas_west__passenger"/>
    <trip id="pas_west_149" depart="1092.46" from="e_t" to="t_w" departLane="best" departSpeed="max" departPos="base" type="pas_west__passenger"/>
    <trip id="pas_west_150" depart="1099.80" from="w_t" to="t_s" departLane="best" departSpeed="max" departPos="base" type="pas_west__passenger"/>
    <trip id="pas_west_151" depart="1107.13" from="w_t" to="t_s" departLane="best" departSpeed="max" departPos="base" type="pas_west__passenger"/>
    <trip id="pas_west_152" depart="1114.46" from="e_t" to="t_e" departLane="best" departSpeed="max" departPos="base" type="pas_west__passenger"/>
    <trip id="pas_west_153" depart="1121.79" from="n_t" to="t_w" departLane="best" departSpeed="max" departPos="base" type="pas_west__passenger"/>
    <trip id="pas_west_154" depart="1129.12" from="w_t" to="t_w" departLane="best" departSpeed="max" departPos="base" type="pas_west__passenger"/>
    <trip id="pas_west_155" depart="1136.46" from="w_t" to="t_e" departLane="best" departSpeed="max" departPos="base" type="pas_west__passenger"/>
    <trip id="pas_west_156" depart="1143.79" from="e_t" to="t_e" departLane="best" departSpeed="max" departPos="base" type="pas_west__passenger"/>
    <trip id="pas_west_157" depart="1151.12" from="w_t" to="t_w" departLane="best" departSpeed="max" departPos="base" type="pas_west__passenger"/>
    <trip id="pas_west_158" depart="1158.45" from="n_t" to="t_s" departLane="best" departSpeed="max" departPos="base" type="pas_west__passenger"/>
    <trip id="pas_west_159" depart="1165.78" from="e_t" to="t_w" departLane="best" departSpeed="max" departPos="base" type="pas_west__passenger"/>
    <trip id="pas_west_160" depart="1173.12" from="w_t" to="t_w" departLane="best" departSpeed="max" departPos="base" type="pas_west__passenger"/>
    <trip id="pas_west_161" depart="1180.45" from="w_t" to="t_w" departLane="best" departSpeed="max" departPos="base" type="pas_west__passenger"/>
    <trip id="pas_west_162" depart="1187.78" from="e_t" to="t_s" departLane="best" departSpeed="max" departPos="base" type="pas_west__passenger"/>
    <trip id="pas_west_163" depart="1195.11" from="n_t" to="t_w" departLane="best" departSpeed="max" departPos="base" type="pas_west__passenger"/>
    <trip id="pas_west_164" depart="1202.44" from="w_t" to="t_w" departLane="best" departSpeed="max" departPos="base" type="pas_west__passenger"/>
    <trip id="pas_west_165" depart="1209.78" from="w_t" to="t_n" departLane="best" departSpeed="max" departPos="base" type="pas_west__passenger"/>
    <trip id="pas_west_166" depart="1217.11" from="w_t" to="t_e" departLane="best" departSpeed="max" departPos="base" type="pas_west__passenger"/>
    <trip id="pas_west_167" depart="1224.44" from="w_t" to="t_w" departLane="best" departSpeed="max" departPos="base" type="pas_west__passenger"/>
    <trip id="pas_west_168" depart="1231.77" from="e_t" to="t_w" departLane="best" departSpeed="max" departPos="base" type="pas_west__passenger"/>
    <trip id="pas_west_169" depart="1239.10" from="n_t" to="t_n" departLane="best" departSpeed="max" departPos="base" type="pas_west__passenger"/>
    <trip id="pas_west_170" depart="1246.44" from="w_t" to="t_e" departLane="best" departSpeed="max" departPos="base" type="pas_west__passenger"/>
    <trip id="pas_west_171" depart="1253.77" from="e_t" to="t_e" departLane="best" departSpeed="max" departPos="base" type="pas_west__passenger"/>
    <trip id="pas_west_172" depart="1261.10" from="n_t" to="t_w" departLane="best" departSpeed="max" departPos="base" type="pas_west__passenger"/>
    <trip id="pas_west_173" depart="1268.43" from="w_t" to="t_n" departLane="best" departSpeed="max" departPos="base" type="pas_west__passenger"/>
    <trip id="pas_west_174" depart="1275.76" from="s_t" to="t_n" departLane="best" departSpeed="max" departPos="base" type="pas_west__passenger"/>
    <trip id="pas_west_175" depart="1283.10" from="w_t" to="t_s" departLane="best" departSpeed="max" departPos="base" type="pas_west__passenger"/>
    <trip id="pas_west_176" depart="1290.43" from="w_t" to="t_e" departLane="best" departSpeed="max" departPos="base" type="pas_west__passenger"/>
    <trip id="pas_west_177" depart="1297.76" from="w_t" to="t_e" departLane="best" departSpeed="max" departPos="base" type="pas_west__passenger"/>
    <trip id="pas_west_178" depart="1305.09" from="w_t" to="t_n" departLane="best" departSpeed="max" departPos="base" type="pas_west__passenger"/>
    <trip id="pas_west_179" depart="1312.42" from="e_t" to="t_n" departLane="best" departSpeed="max" departPos="base" type="pas_west__passenger"/>
    <trip id="pas_west_180" depart="1319.76" from="s_t" to="t_n" departLane="best" departSpeed="max" departPos="base" type="pas_west__passenger"/>
    <trip id="pas_west_181" depart="1327.09" from="s_t" to="t_s" departLane="best" departSpeed="max" departPos="base" type="pas_west__passenger"/>
    <trip id="pas_west_182" depart="1334.42" from="n_t" to="t_s" departLane="best" departSpeed="max" departPos="base" type="pas_west__passenger"/>
    <trip id="pas_west_183" depart="1341.75" from="n_t" to="t_s" departLane="best" departSpeed="max" departPos="base" type="pas_west__passenger"/>
    <trip id="pas_west_184" depart="1349.08" from="e_t" to="t_w" departLane="best" departSpeed="max" departPos="base" type="pas_west__passenger"/>
    <trip id="pas_west_185" depart="1356.42" from="s_t" to="t_s" departLane="best" departSpeed="max" departPos="base" type="pas_west__passenger"/>
    <trip id="pas_west_186" depart="1363.75" from="s_t" to="t_s" departLane="best" departSpeed="max" departPos="base" type="pas_west__passenger"/>
    <trip id="pas_west_187" depart="1371.08" from="n_t" to="t_e" departLane="best" departSpeed="max" departPos="base" type="pas_west__passenger"/>
    <trip id="pas_west_188" depart="1378.41" from="s_t" to="t_n" departLane="best" departSpeed="max" departPos="base" type="pas_west__passenger"/>
    <trip id="pas_west_189" depart="1385.74" from="n_t" to="t_w" departLane="best" departSpeed="max" departPos="base" type="pas_west__passenger"/>
    <trip id="pas_west_190" depart="1393.08" from="s_t" to="t_n" departLane="best" departSpeed="max" departPos="base" type="pas_west__passenger"/>
    <trip id="pas_west_191" depart="1400.41" from="n_t" to="t_n" departLane="best" departSpeed="max" departPos="base" type="pas_west__passenger"/>
    <trip id="pas_west_192" depart="1407.74" from="n_t" to="t_n" departLane="best" departSpeed="max" departPos="base" type="pas_west__passenger"/>
    <trip id="pas_west_193" depart="1415.07" from="e_t" to="t_n" departLane="best" departSpeed="max" departPos="base" type="pas_west__passenger"/>
    <trip id="pas_west_194" depart="1422.40" from="w_t" to="t_s" departLane="best" departSpeed="max" departPos="base" type="pas_west__passenger"/>
    <trip id="pas_west_195" depart="1429.74" from="w_t" to="t_s" departLane="best" departSpeed="max" departPos="base" type="pas_west__passenger"/>
    <trip id="pas_west_196" depart="1437.07" from="n_t" to="t_s" departLane="best" departSpeed="max" departPos="base" type="pas_west__passenger"/>
    <trip id="pas_west_197" depart="1444.40" from="e_t" to="t_n" departLane="best" departSpeed="max" departPos="base" type="pas_west__passenger"/>
    <trip id="pas_west_198" depart="1451.73" from="n_t" to="t_s" departLane="best" departSpeed="max" departPos="base" type="pas_west__passenger"/>
    <trip id="pas_west_199" depart="1459.06" from="s_t" to="t_n" departLane="best" departSpeed="max" departPos="base" type="pas_west__passenger"/>