<?xml version='1.0' encoding='UTF-8'?>
<routes xmlns:xsi="http://www.w3.org/2001/XMLSchema-instance" xsi:noNamespaceSchemaLocation="http://sumo.dlr.de/xsd/routes_file.xsd">
    
    <vType id="pas_passenger" vClass="passenger" />

    
    <!-- ++++++++++++++++++++++++++++++++++++++++++++++++++++++++++++++++++++++++++++++ -->
    <!--                                                                                -->
    <!--                                    6H - 7H                                     -->
    <!--                                                                                -->
    <!-- ++++++++++++++++++++++++++++++++++++++++++++++++++++++++++++++++++++++++++++++ -->
    
    
    


    
    <trip id="pas_north_0" depart="0.00" from="n_t" to="t_e" departLane="best" departSpeed="max" departPos="base" type="pas_passenger" />
    <trip id="pas_south_0" depart="0.00" from="s_t" to="t_w" departLane="best" departSpeed="max" departPos="base" type="pas_passenger" />
    <trip id="pas_east_0" depart="0.00" from="e_t" to="t_s" departLane="best" departSpeed="max" departPos="base" type="pas_passenger" />
    <trip id="pas_west_0" depart="0.00" from="w_t" to="t_n" departLane="best" departSpeed="max" departPos="base" type="pas_passenger" />
    <trip id="pas_west_1" depart="7.26" from="w_t" to="t_n" departLane="best" departSpeed="max" departPos="base" type="pas_passenger" />
    <trip id="pas_west_2" depart="14.52" from="w_t" to="t_n" departLane="best" departSpeed="max" departPos="base" type="pas_passenger" />
    <trip id="pas_east_1" depart="15.52" from="e_t" to="t_w" departLane="best" departSpeed="max" departPos="base" type="pas_passenger" />
    <trip id="pas_west_3" depart="21.77" from="w_t" to="t_e" departLane="best" departSpeed="max" departPos="base" type="pas_passenger" />
    <trip id="pas_west_4" depart="29.03" from="w_t" to="t_s" departLane="best" departSpeed="max" departPos="base" type="pas_passenger" />
    <trip id="pas_east_2" depart="31.03" from="e_t" to="t_w" departLane="best" departSpeed="max" departPos="base" type="pas_passenger" />
    <trip id="pas_west_5" depart="36.29" from="w_t" to="t_s" departLane="best" departSpeed="max" departPos="base" type="pas_passenger" />
    <trip id="pas_north_1" depart="38.30" from="n_t" to="t_e" departLane="best" departSpeed="max" departPos="base" type="pas_passenger" />
    <trip id="pas_west_6" depart="43.55" from="w_t" to="t_s" departLane="best" departSpeed="max" departPos="base" type="pas_passenger" />
    <trip id="pas_east_3" depart="46.55" from="e_t" to="t_s" departLane="best" departSpeed="max" departPos="base" type="pas_passenger" />
    <trip id="pas_west_7" depart="50.81" from="w_t" to="t_s" departLane="best" departSpeed="max" departPos="base" type="pas_passenger" />
    <trip id="pas_south_1" depart="53.73" from="s_t" to="t_n" departLane="best" departSpeed="max" departPos="base" type="pas_passenger" />
    <trip id="pas_west_8" depart="58.06" from="w_t" to="t_s" departLane="best" departSpeed="max" departPos="base" type="pas_passenger" />
    <trip id="pas_east_4" depart="62.07" from="e_t" to="t_s" departLane="best" departSpeed="max" departPos="base" type="pas_passenger" />
    <trip id="pas_west_9" depart="65.32" from="w_t" to="t_e" departLane="best" departSpeed="max" departPos="base" type="pas_passenger" />
    <trip id="pas_west_10" depart="72.58" from="w_t" to="t_n" departLane="best" departSpeed="max" departPos="base" type="pas_passenger" />
    <trip id="pas_north_2" depart="76.60" from="n_t" to="t_e" departLane="best" departSpeed="max" departPos="base" type="pas_passenger" />
    <trip id="pas_east_5" depart="77.59" from="e_t" to="t_w" departLane="best" departSpeed="max" departPos="base" type="pas_passenger" />
    <trip id="pas_west_11" depart="79.84" from="w_t" to="t_e" departLane="best" departSpeed="max" departPos="base" type="pas_passenger" />
    <trip id="pas_west_12" depart="87.10" from="w_t" to="t_e" departLane="best" departSpeed="max" departPos="base" type="pas_passenger" />
    <trip id="pas_east_6" depart="93.10" from="e_t" to="t_n" departLane="best" departSpeed="max" departPos="base" type="pas_passenger" />
    <trip id="pas_west_13" depart="94.35" from="w_t" to="t_s" departLane="best" departSpeed="max" departPos="base" type="pas_passenger" />
    <trip id="pas_west_14" depart="101.61" from="w_t" to="t_e" departLane="best" departSpeed="max" departPos="base" type="pas_passenger" />
    <trip id="pas_south_2" depart="107.46" from="s_t" to="t_n" departLane="best" departSpeed="max" departPos="base" type="pas_passenger" />
    <trip id="pas_east_7" depart="108.62" from="e_t" to="t_n" departLane="best" departSpeed="max" departPos="base" type="pas_passenger" />
    <trip id="pas_west_15" depart="108.87" from="w_t" to="t_s" departLane="best" departSpeed="max" departPos="base" type="pas_passenger" />
    <trip id="pas_north_3" depart="114.89" from="n_t" to="t_e" departLane="best" departSpeed="max" departPos="base" type="pas_passenger" />
    <trip id="pas_west_16" depart="116.13" from="w_t" to="t_s" departLane="best" departSpeed="max" departPos="base" type="pas_passenger" />
    <trip id="pas_west_17" depart="123.39" from="w_t" to="t_s" departLane="best" departSpeed="max" departPos="base" type="pas_passenger" />
    <trip id="pas_east_8" depart="124.14" from="e_t" to="t_w" departLane="best" departSpeed="max" departPos="base" type="pas_passenger" />
    <trip id="pas_west_18" depart="130.65" from="w_t" to="t_s" departLane="best" departSpeed="max" departPos="base" type="pas_passenger" />
    <trip id="pas_west_19" depart="137.90" from="w_t" to="t_n" departLane="best" departSpeed="max" departPos="base" type="pas_passenger" />
    <trip id="pas_east_9" depart="139.66" from="e_t" to="t_s" departLane="best" departSpeed="max" departPos="base" type="pas_passenger" />
    <trip id="pas_west_20" depart="145.16" from="w_t" to="t_n" departLane="best" departSpeed="max" departPos="base" type="pas_passenger" />
    <trip id="pas_west_21" depart="152.42" from="w_t" to="t_n" departLane="best" departSpeed="max" departPos="base" type="pas_passenger" />
    <trip id="pas_north_4" depart="153.19" from="n_t" to="t_s" departLane="best" departSpeed="max" departPos="base" type="pas_passenger" />
    <trip id="pas_east_10" depart="155.17" from="e_t" to="t_s" departLane="best" departSpeed="max" departPos="base" type="pas_passenger" />
    <trip id="pas_west_22" depart="159.68" from="w_t" to="t_e" departLane="best" departSpeed="max" departPos="base" type="pas_passenger" />
    <trip id="pas_south_3" depart="161.19" from="s_t" to="t_n" departLane="best" departSpeed="max" departPos="base" type="pas_passenger" />
    <trip id="pas_west_23" depart="166.94" from="w_t" to="t_s" departLane="best" departSpeed="max" departPos="base" type="pas_passenger" />
    <trip id="pas_east_11" depart="170.69" from="e_t" to="t_s" departLane="best" departSpeed="max" departPos="base" type="pas_passenger" />
    <trip id="pas_west_24" depart="174.19" from="w_t" to="t_s" departLane="best" departSpeed="max" departPos="base" type="pas_passenger" />
    <trip id="pas_west_25" depart="181.45" from="w_t" to="t_n" departLane="best" departSpeed="max" departPos="base" type="pas_passenger" />
    <trip id="pas_east_12" depart="186.21" from="e_t" to="t_w" departLane="best" departSpeed="max" departPos="base" type="pas_passenger" />
    <trip id="pas_west_26" depart="188.71" from="w_t" to="t_n" departLane="best" departSpeed="max" departPos="base" type="pas_passenger" />
    <trip id="pas_north_5" depart="191.49" from="n_t" to="t_w" departLane="best" departSpeed="max" departPos="base" type="pas_passenger" />
    <trip id="pas_west_27" depart="195.97" from="w_t" to="t_n" departLane="best" departSpeed="max" departPos="base" type="pas_passenger" />
    <trip id="pas_east_13" depart="201.72" from="e_t" to="t_s" departLane="best" departSpeed="max" departPos="base" type="pas_passenger" />
    <trip id="pas_west_28" depart="203.23" from="w_t" to="t_n" departLane="best" departSpeed="max" departPos="base" type="pas_passenger" />
    <trip id="pas_west_29" depart="210.48" from="w_t" to="t_n" departLane="best" departSpeed="max" departPos="base" type="pas_passenger" />
    <trip id="pas_south_4" depart="214.93" from="s_t" to="t_n" departLane="best" departSpeed="max" departPos="base" type="pas_passenger" />
    <trip id="pas_east_14" depart="217.24" from="e_t" to="t_s" departLane="best" departSpeed="max" departPos="base" type="pas_passenger" />
    <trip id="pas_west_30" depart="217.74" from="w_t" to="t_n" departLane="best" departSpeed="max" departPos="base" type="pas_passenger" />
    <trip id="pas_west_31" depart="225.00" from="w_t" to="t_e" departLane="best" departSpeed="max" departPos="base" type="pas_passenger" />
    <trip id="pas_north_6" depart="229.79" from="n_t" to="t_e" departLane="best" departSpeed="max" departPos="base" type="pas_passenger" />
    <trip id="pas_west_32" depart="232.26" from="w_t" to="t_s" departLane="best" departSpeed="max" departPos="base" type="pas_passenger" />
    <trip id="pas_east_15" depart="232.76" from="e_t" to="t_w" departLane="best" departSpeed="max" departPos="base" type="pas_passenger" />
    <trip id="pas_west_33" depart="239.52" from="w_t" to="t_s" departLane="best" departSpeed="max" departPos="base" type="pas_passenger" />
    <trip id="pas_west_34" depart="246.77" from="w_t" to="t_s" departLane="best" departSpeed="max" departPos="base" type="pas_passenger" />
    <trip id="pas_east_16" depart="248.28" from="e_t" to="t_w" departLane="best" departSpeed="max" departPos="base" type="pas_passenger" />
    <trip id="pas_west_35" depart="254.03" from="w_t" to="t_n" departLane="best" departSpeed="max" departPos="base" type="pas_passenger" />
    <trip id="pas_west_36" depart="261.29" from="w_t" to="t_s" departLane="best" departSpeed="max" departPos="base" type="pas_passenger" />
    <trip id="pas_east_17" depart="263.79" from="e_t" to="t_w" departLane="best" departSpeed="max" departPos="base" type="pas_passenger" />
    <trip id="pas_north_7" depart="268.09" from="n_t" to="t_s" departLane="best" departSpeed="max" departPos="base" type="pas_passenger" />
    <trip id="pas_west_37" depart="268.55" from="w_t" to="t_n" departLane="best" departSpeed="max" departPos="base" type="pas_passenger" />
    <trip id="pas_south_5" depart="268.66" from="s_t" to="t_e" departLane="best" departSpeed="max" departPos="base" type="pas_passenger" />
    <trip id="pas_west_38" depart="275.81" from="w_t" to="t_e" departLane="best" departSpeed="max" departPos="base" type="pas_passenger" />
    <trip id="pas_east_18" depart="279.31" from="e_t" to="t_w" departLane="best" departSpeed="max" departPos="base" type="pas_passenger" />
    <trip id="pas_west_39" depart="283.06" from="w_t" to="t_s" departLane="best" departSpeed="max" departPos="base" type="pas_passenger" />
    <trip id="pas_west_40" depart="290.32" from="w_t" to="t_n" departLane="best" departSpeed="max" departPos="base" type="pas_passenger" />
    <trip id="pas_east_19" depart="294.83" from="e_t" to="t_s" departLane="best" departSpeed="max" departPos="base" type="pas_passenger" />
    <trip id="pas_west_41" depart="297.58" from="w_t" to="t_e" departLane="best" departSpeed="max" departPos="base" type="pas_passenger" />
    <trip id="pas_west_42" depart="304.84" from="w_t" to="t_s" departLane="best" departSpeed="max" departPos="base" type="pas_passenger" />
    <trip id="pas_north_8" depart="306.38" from="n_t" to="t_w" departLane="best" departSpeed="max" departPos="base" type="pas_passenger" />
    <trip id="pas_east_20" depart="310.34" from="e_t" to="t_w" departLane="best" departSpeed="max" departPos="base" type="pas_passenger" />
    <trip id="pas_west_43" depart="312.10" from="w_t" to="t_s" departLane="best" departSpeed="max" departPos="base" type="pas_passenger" />
    <trip id="pas_west_44" depart="319.35" from="w_t" to="t_n" departLane="best" departSpeed="max" departPos="base" type="pas_passenger" />
    <trip id="pas_south_6" depart="322.39" from="s_t" to="t_e" departLane="best" departSpeed="max" departPos="base" type="pas_passenger" />
    <trip id="pas_east_21" depart="325.86" from="e_t" to="t_n" departLane="best" departSpeed="max" departPos="base" type="pas_passenger" />
    <trip id="pas_west_45" depart="326.61" from="w_t" to="t_n" departLane="best" departSpeed="max" departPos="base" type="pas_passenger" />
    <trip id="pas_west_46" depart="333.87" from="w_t" to="t_n" departLane="best" departSpeed="max" departPos="base" type="pas_passenger" />
    <trip id="pas_west_47" depart="341.13" from="w_t" to="t_e" departLane="best" departSpeed="max" departPos="base" type="pas_passenger" />
    <trip id="pas_east_22" depart="341.38" from="e_t" to="t_w" departLane="best" departSpeed="max" departPos="base" type="pas_passenger" />
    <trip id="pas_north_9" depart="344.68" from="n_t" to="t_w" departLane="best" departSpeed="max" departPos="base" type="pas_passenger" />
    <trip id="pas_west_48" depart="348.39" from="w_t" to="t_e" departLane="best" departSpeed="max" departPos="base" type="pas_passenger" />
    <trip id="pas_west_49" depart="355.65" from="w_t" to="t_n" departLane="best" departSpeed="max" departPos="base" type="pas_passenger" />
    <trip id="pas_east_23" depart="356.90" from="e_t" to="t_s" departLane="best" departSpeed="max" departPos="base" type="pas_passenger" />
    <trip id="pas_west_50" depart="362.90" from="w_t" to="t_e" departLane="best" departSpeed="max" departPos="base" type="pas_passenger" />
    <trip id="pas_west_51" depart="370.16" from="w_t" to="t_n" departLane="best" departSpeed="max" departPos="base" type="pas_passenger" />
    <trip id="pas_east_24" depart="372.41" from="e_t" to="t_n" departLane="best" departSpeed="max" departPos="base" type="pas_passenger" />
    <trip id="pas_south_7" depart="376.12" from="s_t" to="t_e" departLane="best" departSpeed="max" departPos="base" type="pas_passenger" />
    <trip id="pas_west_52" depart="377.42" from="w_t" to="t_n" departLane="best" departSpeed="max" departPos="base" type="pas_passenger" />
    <trip id="pas_north_10" depart="382.98" from="n_t" to="t_e" departLane="best" departSpeed="max" departPos="base" type="pas_passenger" />
    <trip id="pas_west_53" depart="384.68" from="w_t" to="t_e" departLane="best" departSpeed="max" departPos="base" type="pas_passenger" />
    <trip id="pas_east_25" depart="387.93" from="e_t" to="t_w" departLane="best" departSpeed="max" departPos="base" type="pas_passenger" />
    <trip id="pas_west_54" depart="391.94" from="w_t" to="t_e" departLane="best" departSpeed="max" departPos="base" type="pas_passenger" />
    <trip id="pas_west_55" depart="399.19" from="w_t" to="t_e" departLane="best" departSpeed="max" departPos="base" type="pas_passenger" />
    <trip id="pas_east_26" depart="403.45" from="e_t" to="t_n" departLane="best" departSpeed="max" departPos="base" type="pas_passenger" />
    <trip id="pas_west_56" depart="406.45" from="w_t" to="t_s" departLane="best" departSpeed="max" departPos="base" type="pas_passenger" />
    <trip id="pas_west_57" depart="413.71" from="w_t" to="t_n" departLane="best" departSpeed="max" departPos="base" type="pas_passenger" />
    <trip id="pas_east_27" depart="418.97" from="e_t" to="t_n" departLane="best" departSpeed="max" departPos="base" type="pas_passenger" />
    <trip id="pas_west_58" depart="420.97" from="w_t" to="t_s" departLane="best" departSpeed="max" departPos="base" type="pas_passenger" />
    <trip id="pas_north_11" depart="421.28" from="n_t" to="t_s" departLane="best" departSpeed="max" departPos="base" type="pas_passenger" />
    <trip id="pas_west_59" depart="428.23" from="w_t" to="t_e" departLane="best" departSpeed="max" departPos="base" type="pas_passenger" />
    <trip id="pas_south_8" depart="429.85" from="s_t" to="t_n" departLane="best" departSpeed="max" departPos="base" type="pas_passenger" />
    <trip id="pas_east_28" depart="434.48" from="e_t" to="t_n" departLane="best" departSpeed="max" departPos="base" type="pas_passenger" />
    <trip id="pas_west_60" depart="435.48" from="w_t" to="t_n" departLane="best" departSpeed="max" departPos="base" type="pas_passenger" />
    <trip id="pas_west_61" depart="442.74" from="w_t" to="t_s" departLane="best" departSpeed="max" departPos="base" type="pas_passenger" />
    <trip id="pas_east_29" depart="450.00" from="e_t" to="t_w" departLane="best" departSpeed="max" departPos="base" type="pas_passenger" />
    <trip id="pas_west_62" depart="450.00" from="w_t" to="t_n" departLane="best" departSpeed="max" departPos="base" type="pas_passenger" />
    <trip id="pas_west_63" depart="457.26" from="w_t" to="t_s" departLane="best" departSpeed="max" departPos="base" type="pas_passenger" />
    <trip id="pas_north_12" depart="459.57" from="n_t" to="t_s" departLane="best" departSpeed="max" departPos="base" type="pas_passenger" />
    <trip id="pas_west_64" depart="464.52" from="w_t" to="t_e" departLane="best" departSpeed="max" departPos="base" type="pas_passenger" />
    <trip id="pas_east_30" depart="465.52" from="e_t" to="t_w" departLane="best" departSpeed="max" departPos="base" type="pas_passenger" />
    <trip id="pas_west_65" depart="471.77" from="w_t" to="t_s" departLane="best" departSpeed="max" departPos="base" type="pas_passenger" />
    <trip id="pas_west_66" depart="479.03" from="w_t" to="t_s" departLane="best" departSpeed="max" departPos="base" type="pas_passenger" />
    <trip id="pas_east_31" depart="481.03" from="e_t" to="t_s" departLane="best" departSpeed="max" departPos="base" type="pas_passenger" />
    <trip id="pas_south_9" depart="483.58" from="s_t" to="t_e" departLane="best" departSpeed="max" departPos="base" type="pas_passenger" />
    <trip id="pas_west_67" depart="486.29" from="w_t" to="t_e" departLane="best" departSpeed="max" departPos="base" type="pas_passenger" />
    <trip id="pas_west_68" depart="493.55" from="w_t" to="t_e" departLane="best" departSpeed="max" departPos="base" type="pas_passenger" />
    <trip id="pas_east_32" depart="496.55" from="e_t" to="t_s" departLane="best" departSpeed="max" departPos="base" type="pas_passenger" />
    <trip id="pas_north_13" depart="497.87" from="n_t" to="t_s" departLane="best" departSpeed="max" departPos="base" type="pas_passenger" />
    <trip id="pas_west_69" depart="500.81" from="w_t" to="t_e" departLane="best" departSpeed="max" departPos="base" type="pas_passenger" />
    <trip id="pas_west_70" depart="508.06" from="w_t" to="t_s" departLane="best" departSpeed="max" departPos="base" type="pas_passenger" />
    <trip id="pas_east_33" depart="512.07" from="e_t" to="t_w" departLane="best" departSpeed="max" departPos="base" type="pas_passenger" />
    <trip id="pas_west_71" depart="515.32" from="w_t" to="t_n" departLane="best" departSpeed="max" departPos="base" type="pas_passenger" />
    <trip id="pas_west_72" depart="522.58" from="w_t" to="t_e" departLane="best" departSpeed="max" departPos="base" type="pas_passenger" />
    <trip id="pas_east_34" depart="527.59" from="e_t" to="t_s" departLane="best" departSpeed="max" departPos="base" type="pas_passenger" />
    <trip id="pas_west_73" depart="529.84" from="w_t" to="t_e" departLane="best" departSpeed="max" departPos="base" type="pas_passenger" />
    <trip id="pas_north_14" depart="536.17" from="n_t" to="t_e" departLane="best" departSpeed="max" departPos="base" type="pas_passenger" />
    <trip id="pas_west_74" depart="537.10" from="w_t" to="t_s" departLane="best" departSpeed="max" departPos="base" type="pas_passenger" />
    <trip id="pas_south_10" depart="537.31" from="s_t" to="t_n" departLane="best" departSpeed="max" departPos="base" type="pas_passenger" />
    <trip id="pas_east_35" depart="543.10" from="e_t" to="t_n" departLane="best" departSpeed="max" departPos="base" type="pas_passenger" />
    <trip id="pas_west_75" depart="544.35" from="w_t" to="t_s" departLane="best" departSpeed="max" departPos="base" type="pas_passenger" />
    <trip id="pas_west_76" depart="551.61" from="w_t" to="t_s" departLane="best" departSpeed="max" departPos="base" type="pas_passenger" />
    <trip id="pas_east_36" depart="558.62" from="e_t" to="t_n" departLane="best" departSpeed="max" departPos="base" type="pas_passenger" />
    <trip id="pas_west_77" depart="558.87" from="w_t" to="t_s" departLane="best" departSpeed="max" departPos="base" type="pas_passenger" />
    <trip id="pas_west_78" depart="566.13" from="w_t" to="t_n" departLane="best" departSpeed="max" departPos="base" type="pas_passenger" />
    <trip id="pas_west_79" depart="573.39" from="w_t" to="t_n" departLane="best" departSpeed="max" departPos="base" type="pas_passenger" />
    <trip id="pas_east_37" depart="574.14" from="e_t" to="t_s" departLane="best" departSpeed="max" departPos="base" type="pas_passenger" />
    <trip id="pas_north_15" depart="574.47" from="n_t" to="t_s" departLane="best" departSpeed="max" departPos="base" type="pas_passenger" />
    <trip id="pas_west_80" depart="580.65" from="w_t" to="t_n" departLane="best" departSpeed="max" departPos="base" type="pas_passenger" />
    <trip id="pas_west_81" depart="587.90" from="w_t" to="t_e" departLane="best" departSpeed="max" departPos="base" type="pas_passenger" />
    <trip id="pas_east_38" depart="589.66" from="e_t" to="t_s" departLane="best" departSpeed="max" departPos="base" type="pas_passenger" />
    <trip id="pas_south_11" depart="591.04" from="s_t" to="t_n" departLane="best" departSpeed="max" departPos="base" type="pas_passenger" />
    <trip id="pas_west_82" depart="595.16" from="w_t" to="t_e" departLane="best" departSpeed="max" departPos="base" type="pas_passenger" />
    <trip id="pas_west_83" depart="602.42" from="w_t" to="t_e" departLane="best" departSpeed="max" departPos="base" type="pas_passenger" />
    <trip id="pas_east_39" depart="605.17" from="e_t" to="t_n" departLane="best" departSpeed="max" departPos="base" type="pas_passenger" />
    <trip id="pas_west_84" depart="609.68" from="w_t" to="t_n" departLane="best" departSpeed="max" departPos="base" type="pas_passenger" />
    <trip id="pas_north_16" depart="612.77" from="n_t" to="t_w" departLane="best" departSpeed="max" departPos="base" type="pas_passenger" />
    <trip id="pas_west_85" depart="616.94" from="w_t" to="t_e" departLane="best" departSpeed="max" departPos="base" type="pas_passenger" />
    <trip id="pas_east_40" depart="620.69" from="e_t" to="t_w" departLane="best" departSpeed="max" departPos="base" type="pas_passenger" />
    <trip id="pas_west_86" depart="624.19" from="w_t" to="t_n" departLane="best" departSpeed="max" departPos="base" type="pas_passenger" />
    <trip id="pas_west_87" depart="631.45" from="w_t" to="t_e" departLane="best" departSpeed="max" departPos="base" type="pas_passenger" />
    <trip id="pas_east_41" depart="636.21" from="e_t" to="t_s" departLane="best" departSpeed="max" departPos="base" type="pas_passenger" />
    <trip id="pas_west_88" depart="638.71" from="w_t" to="t_n" departLane="best" departSpeed="max" departPos="base" type="pas_passenger" />
    <trip id="pas_south_12" depart="644.78" from="s_t" to="t_e" departLane="best" departSpeed="max" departPos="base" type="pas_passenger" />
    <trip id="pas_west_89" depart="645.97" from="w_t" to="t_n" departLane="best" departSpeed="max" departPos="base" type="pas_passenger" />
    <trip id="pas_north_17" depart="651.06" from="n_t" to="t_w" departLane="best" departSpeed="max" departPos="base" type="pas_passenger" />
    <trip id="pas_east_42" depart="651.72" from="e_t" to="t_n" departLane="best" departSpeed="max" departPos="base" type="pas_passenger" />
    <trip id="pas_west_90" depart="653.23" from="w_t" to="t_s" departLane="best" departSpeed="max" departPos="base" type="pas_passenger" />
    <trip id="pas_west_91" depart="660.48" from="w_t" to="t_e" departLane="best" departSpeed="max" departPos="base" type="pas_passenger" />
    <trip id="pas_east_43" depart="667.24" from="e_t" to="t_n" departLane="best" departSpeed="max" departPos="base" type="pas_passenger" />
    <trip id="pas_west_92" depart="667.74" from="w_t" to="t_s" departLane="best" departSpeed="max" departPos="base" type="pas_passenger" />
    <trip id="pas_west_93" depart="675.00" from="w_t" to="t_s" departLane="best" departSpeed="max" departPos="base" type="pas_passenger" />
    <trip id="pas_west_94" depart="682.26" from="w_t" to="t_s" departLane="best" departSpeed="max" departPos="base" type="pas_passenger" />
    <trip id="pas_east_44" depart="682.76" from="e_t" to="t_s" departLane="best" departSpeed="max" departPos="base" type="pas_passenger" />
    <trip id="pas_north_18" depart="689.36" from="n_t" to="t_s" departLane="best" departSpeed="max" departPos="base" type="pas_passenger" />
    <trip id="pas_west_95" depart="689.52" from="w_t" to="t_n" departLane="best" departSpeed="max" departPos="base" type="pas_passenger" />
    <trip id="pas_west_96" depart="696.77" from="w_t" to="t_s" departLane="best" departSpeed="max" departPos="base" type="pas_passenger" />
    <trip id="pas_east_45" depart="698.28" from="e_t" to="t_w" departLane="best" departSpeed="max" departPos="base" type="pas_passenger" />
    <trip id="pas_south_13" depart="698.51" from="s_t" to="t_n" departLane="best" departSpeed="max" departPos="base" type="pas_passenger" />
    <trip id="pas_west_97" depart="704.03" from="w_t" to="t_e" departLane="best" departSpeed="max" departPos="base" type="pas_passenger" />
    <trip id="pas_west_98" depart="711.29" from="w_t" to="t_e" departLane="best" departSpeed="max" departPos="base" type="pas_passenger" />
    <trip id="pas_east_46" depart="713.79" from="e_t" to="t_s" departLane="best" departSpeed="max" departPos="base" type="pas_passenger" />
    <trip id="pas_west_99" depart="718.55" from="w_t" to="t_e" departLane="best" departSpeed="max" departPos="base" type="pas_passenger" />
    <trip id="pas_west_100" depart="725.81" from="w_t" to="t_n" departLane="best" departSpeed="max" departPos="base" type="pas_passenger" />
    <trip id="pas_north_19" depart="727.66" from="n_t" to="t_w" departLane="best" departSpeed="max" departPos="base" type="pas_passenger" />
    <trip id="pas_east_47" depart="729.31" from="e_t" to="t_s" departLane="best" departSpeed="max" departPos="base" type="pas_passenger" />
    <trip id="pas_west_101" depart="733.06" from="w_t" to="t_s" departLane="best" departSpeed="max" departPos="base" type="pas_passenger" />
    <trip id="pas_west_102" depart="740.32" from="w_t" to="t_s" departLane="best" departSpeed="max" departPos="base" type="pas_passenger" />
    <trip id="pas_east_48" depart="744.83" from="e_t" to="t_n" departLane="best" departSpeed="max" departPos="base" type="pas_passenger" />
    <trip id="pas_west_103" depart="747.58" from="w_t" to="t_e" departLane="best" departSpeed="max" departPos="base" type="pas_passenger" />
    <trip id="pas_south_14" depart="752.24" from="s_t" to="t_w" departLane="best" departSpeed="max" departPos="base" type="pas_passenger" />
    <trip id="pas_west_104" depart="754.84" from="w_t" to="t_e" departLane="best" departSpeed="max" departPos="base" type="pas_passenger" />
    <trip id="pas_east_49" depart="760.34" from="e_t" to="t_s" departLane="best" departSpeed="max" departPos="base" type="pas_passenger" />
    <trip id="pas_west_105" depart="762.10" from="w_t" to="t_n" departLane="best" departSpeed="max" departPos="base" type="pas_passenger" />
    <trip id="pas_north_20" depart="765.96" from="n_t" to="t_s" departLane="best" departSpeed="max" departPos="base" type="pas_passenger" />
    <trip id="pas_west_106" depart="769.35" from="w_t" to="t_s" departLane="best" departSpeed="max" departPos="base" type="pas_passenger" />
    <trip id="pas_east_50" depart="775.86" from="e_t" to="t_n" departLane="best" departSpeed="max" departPos="base" type="pas_passenger" />
    <trip id="pas_west_107" depart="776.61" from="w_t" to="t_e" departLane="best" departSpeed="max" departPos="base" type="pas_passenger" />
    <trip id="pas_west_108" depart="783.87" from="w_t" to="t_e" departLane="best" departSpeed="max" departPos="base" type="pas_passenger" />
    <trip id="pas_west_109" depart="791.13" from="w_t" to="t_e" departLane="best" departSpeed="max" departPos="base" type="pas_passenger" />
    <trip id="pas_east_51" depart="791.38" from="e_t" to="t_n" departLane="best" departSpeed="max" departPos="base" type="pas_passenger" />
    <trip id="pas_west_110" depart="798.39" from="w_t" to="t_e" departLane="best" departSpeed="max" departPos="base" type="pas_passenger" />
    <trip id="pas_north_21" depart="804.26" from="n_t" to="t_e" departLane="best" departSpeed="max" departPos="base" type="pas_passenger" />
    <trip id="pas_west_111" depart="805.65" from="w_t" to="t_e" departLane="best" departSpeed="max" departPos="base" type="pas_passenger" />
    <trip id="pas_south_15" depart="805.97" from="s_t" to="t_w" departLane="best" departSpeed="max" departPos="base" type="pas_passenger" />
    <trip id="pas_east_52" depart="806.90" from="e_t" to="t_w" departLane="best" departSpeed="max" departPos="base" type="pas_passenger" />
    <trip id="pas_west_112" depart="812.90" from="w_t" to="t_s" departLane="best" departSpeed="max" departPos="base" type="pas_passenger" />
    <trip id="pas_west_113" depart="820.16" from="w_t" to="t_s" departLane="best" departSpeed="max" departPos="base" type="pas_passenger" />
    <trip id="pas_east_53" depart="822.41" from="e_t" to="t_s" departLane="best" departSpeed="max" departPos="base" type="pas_passenger" />
    <trip id="pas_west_114" depart="827.42" from="w_t" to="t_n" departLane="best" departSpeed="max" departPos="base" type="pas_passenger" />
    <trip id="pas_west_115" depart="834.68" from="w_t" to="t_n" departLane="best" departSpeed="max" departPos="base" type="pas_passenger" />
    <trip id="pas_east_54" depart="837.93" from="e_t" to="t_s" departLane="best" departSpeed="max" departPos="base" type="pas_passenger" />