<?xml version='1.0' encoding='UTF-8'?>
<routes xmlns:xsi="http://www.w3.org/2001/XMLSchema-instance" xsi:noNamespaceSchemaLocation="http://sumo.dlr.de/xsd/routes_file.xsd">
    <vType id="pas_passenger" vClass="passenger" />
    <trip id="pas_west_0" depart="0.00" from="w_t" to="t_s" departLane="best" departSpeed="max" departPos="base" type="pas_passenger" />
    <trip id="pas_south_0" depart="0.00" from="s_t" to="t_n" departLane="best" departSpeed="max" departPos="base" type="pas_passenger" />
    <trip id="pas_east_0" depart="0.00" from="e_t" to="t_w" departLane="best" departSpeed="max" departPos="base" type="pas_passenger" />
    <trip id="pas_north_0" depart="0.00" from="n_t" to="t_e" departLane="best" departSpeed="max" departPos="base" type="pas_passenger" />
    <trip id="pas_east_1" depart="5.63" from="e_t" to="t_n" departLane="best" departSpeed="max" departPos="base" type="pas_passenger" />
    <trip id="pas_west_1" depart="7.33" from="w_t" to="t_n" departLane="best" departSpeed="max" departPos="base" type="pas_passenger" />
    <trip id="pas_south_1" depart="9.45" from="s_t" to="t_e" departLane="best" departSpeed="max" departPos="base" type="pas_passenger" />
    <trip id="pas_east_2" depart="11.27" from="e_t" to="t_s" departLane="best" departSpeed="max" departPos="base" type="pas_passenger" />
    <trip id="pas_west_2" depart="14.66" from="w_t" to="t_e" departLane="best" departSpeed="max" departPos="base" type="pas_passenger" />
    <trip id="pas_east_3" depart="16.90" from="e_t" to="t_w" departLane="best" departSpeed="max" departPos="base" type="pas_passenger" />
    <trip id="pas_south_2" depart="18.90" from="s_t" to="t_n" departLane="best" departSpeed="max" departPos="base" type="pas_passenger" />
    <trip id="pas_north_1" depart="20.69" from="n_t" to="t_s" departLane="best" departSpeed="max" departPos="base" type="pas_passenger" />
    <trip id="pas_west_3" depart="22.00" from="w_t" to="t_e" departLane="best" departSpeed="max" departPos="base" type="pas_passenger" />
    <trip id="pas_east_4" depart="22.54" from="e_t" to="t_w" departLane="best" departSpeed="max" departPos="base" type="pas_passenger" />
    <trip id="pas_east_5" depart="28.17" from="e_t" to="t_w" departLane="best" departSpeed="max" departPos="base" type="pas_passenger" />
    <trip id="pas_south_3" depart="28.35" from="s_t" to="t_n" departLane="best" departSpeed="max" departPos="base" type="pas_passenger" />
    <trip id="pas_west_4" depart="29.33" from="w_t" to="t_e" departLane="best" departSpeed="max" departPos="base" type="pas_passenger" />
    <trip id="pas_east_6" depart="33.80" from="e_t" to="t_w" departLane="best" departSpeed="max" departPos="base" type="pas_passenger" />
    <trip id="pas_west_5" depart="36.66" from="w_t" to="t_n" departLane="best" departSpeed="max" departPos="base" type="pas_passenger" />
    <trip id="pas_south_4" depart="37.80" from="s_t" to="t_e" departLane="best" departSpeed="max" departPos="base" type="pas_passenger" />
    <trip id="pas_east_7" depart="39.44" from="e_t" to="t_n" departLane="best" departSpeed="max" departPos="base" type="pas_passenger" />
    <trip id="pas_north_2" depart="41.38" from="n_t" to="t_w" departLane="best" departSpeed="max" departPos="base" type="pas_passenger" />
    <trip id="pas_west_6" depart="43.99" from="w_t" to="t_s" departLane="best" departSpeed="max" departPos="base" type="pas_passenger" />
    <trip id="pas_east_8" depart="45.07" from="e_t" to="t_w" departLane="best" departSpeed="max" departPos="base" type="pas_passenger" />
    <trip id="pas_south_5" depart="47.24" from="s_t" to="t_n" departLane="best" departSpeed="max" departPos="base" type="pas_passenger" />
    <trip id="pas_east_9" depart="50.70" from="e_t" to="t_w" departLane="best" departSpeed="max" departPos="base" type="pas_passenger" />
    <trip id="pas_west_7" depart="51.32" from="w_t" to="t_n" departLane="best" departSpeed="max" departPos="base" type="pas_passenger" />
    <trip id="pas_east_10" depart="56.34" from="e_t" to="t_s" departLane="best" departSpeed="max" departPos="base" type="pas_passenger" />
    <trip id="pas_south_6" depart="56.69" from="s_t" to="t_e" departLane="best" departSpeed="max" departPos="base" type="pas_passenger" />
    <trip id="pas_west_8" depart="58.66" from="w_t" to="t_s" departLane="best" departSpeed="max" departPos="base" type="pas_passenger" />
    <trip id="pas_east_11" depart="61.97" from="e_t" to="t_w" departLane="best" departSpeed="max" departPos="base" type="pas_passenger" />
    <trip id="pas_north_3" depart="62.07" from="n_t" to="t_e" departLane="best" departSpeed="max" departPos="base" type="pas_passenger" />
    <trip id="pas_west_9" depart="65.99" from="w_t" to="t_n" departLane="best" departSpeed="max" departPos="base" type="pas_passenger" />
    <trip id="pas_south_7" depart="66.14" from="s_t" to="t_w" departLane="best" departSpeed="max" departPos="base" type="pas_passenger" />
    <trip id="pas_east_12" depart="67.61" from="e_t" to="t_n" departLane="best" departSpeed="max" departPos="base" type="pas_passenger" />
    <trip id="pas_east_13" depart="73.24" from="e_t" to="t_n" departLane="best" departSpeed="max" departPos="base" type="pas_passenger" />
    <trip id="pas_west_10" depart="73.32" from="w_t" to="t_n" departLane="best" departSpeed="max" departPos="base" type="pas_passenger" />
    <trip id="pas_south_8" depart="75.59" from="s_t" to="t_w" departLane="best" departSpeed="max" departPos="base" type="pas_passenger" />
    <trip id="pas_east_14" depart="78.87" from="e_t" to="t_s" departLane="best" departSpeed="max" departPos="base" type="pas_passenger" />
    <trip id="pas_west_11" depart="80.65" from="w_t" to="t_e" departLane="best" departSpeed="max" departPos="base" type="pas_passenger" />
    <trip id="pas_north_4" depart="82.76" from="n_t" to="t_s" departLane="best" departSpeed="max" departPos="base" type="pas_passenger" />
    <trip id="pas_east_15" depart="84.51" from="e_t" to="t_n" departLane="best" departSpeed="max" departPos="base" type="pas_passenger" />
    <trip id="pas_south_9" depart="85.04" from="s_t" to="t_w" departLane="best" departSpeed="max" departPos="base" type="pas_passenger" />
    <trip id="pas_west_12" depart="87.98" from="w_t" to="t_n" departLane="best" departSpeed="max" departPos="base" type="pas_passenger" />
    <trip id="pas_east_16" depart="90.14" from="e_t" to="t_w" departLane="best" departSpeed="max" departPos="base" type="pas_passenger" />
    <trip id="pas_south_10" depart="94.49" from="s_t" to="t_e" departLane="best" departSpeed="max" departPos="base" type="pas_passenger" />
    <trip id="pas_west_13" depart="95.32" from="w_t" to="t_e" departLane="best" departSpeed="max" departPos="base" type="pas_passenger" />
    <trip id="pas_east_17" depart="95.77" from="e_t" to="t_n" departLane="best" departSpeed="max" departPos="base" type="pas_passenger" />
    <trip id="pas_east_18" depart="101.41" from="e_t" to="t_n" departLane="best" departSpeed="max" departPos="base" type="pas_passenger" />
    <trip id="pas_west_14" depart="102.65" from="w_t" to="t_s" departLane="best" departSpeed="max" departPos="base" type="pas_passenger" />
    <trip id="pas_north_5" depart="103.45" from="n_t" to="t_w" departLane="best" departSpeed="max" departPos="base" type="pas_passenger" />
    <trip id="pas_south_11" depart="103.94" from="s_t" to="t_n" departLane="best" departSpeed="max" departPos="base" type="pas_passenger" />
    <trip id="pas_east_19" depart="107.04" from="e_t" to="t_w" departLane="best" departSpeed="max" departPos="base" type="pas_passenger" />
    <trip id="pas_west_15" depart="109.98" from="w_t" to="t_s" departLane="best" departSpeed="max" departPos="base" type="pas_passenger" />
    <trip id="pas_east_20" depart="112.68" from="e_t" to="t_n" departLane="best" departSpeed="max" departPos="base" type="pas_passenger" />
    <trip id="pas_south_12" depart="113.39" from="s_t" to="t_n" departLane="best" departSpeed="max" departPos="base" type="pas_passenger" />
    <trip id="pas_west_16" depart="117.31" from="w_t" to="t_n" departLane="best" departSpeed="max" departPos="base" type="pas_passenger" />
    <trip id="pas_east_21" depart="118.31" from="e_t" to="t_w" departLane="best" departSpeed="max" departPos="base" type="pas_passenger" />
    <trip id="pas_south_13" depart="122.83" from="s_t" to="t_e" departLane="best" departSpeed="max" departPos="base" type="pas_passenger" />
    <trip id="pas_east_22" depart="123.94" from="e_t" to="t_n" departLane="best" departSpeed="max" departPos="base" type="pas_passenger" />
    <trip id="pas_north_6" depart="124.14" from="n_t" to="t_w" departLane="best" departSpeed="max" departPos="base" type="pas_passenger" />
    <trip id="pas_west_17" depart="124.64" from="w_t" to="t_n" departLane="best" departSpeed="max" departPos="base" type="pas_passenger" />
    <trip id="pas_east_23" depart="129.58" from="e_t" to="t_n" departLane="best" departSpeed="max" departPos="base" type="pas_passenger" />
    <trip id="pas_west_18" depart="131.98" from="w_t" to="t_s" departLane="best" departSpeed="max" departPos="base" type="pas_passenger" />
    <trip id="pas_south_14" depart="132.28" from="s_t" to="t_n" departLane="best" departSpeed="max" departPos="base" type="pas_passenger" />
    <trip id="pas_east_24" depart="135.21" from="e_t" to="t_w" departLane="best" departSpeed="max" departPos="base" type="pas_passenger" />
    <trip id="pas_west_19" depart="139.31" from="w_t" to="t_n" departLane="best" departSpeed="max" departPos="base" type="pas_passenger" />
    <trip id="pas_east_25" depart="140.85" from="e_t" to="t_n" departLane="best" departSpeed="max" departPos="base" type="pas_passenger" />
    <trip id="pas_south_15" depart="141.73" from="s_t" to="t_w" departLane="best" departSpeed="max" departPos="base" type="pas_passenger" />
    <trip id="pas_north_7" depart="144.83" from="n_t" to="t_w" departLane="best" departSpeed="max" departPos="base" type="pas_passenger" />
    <trip id="pas_east_26" depart="146.48" from="e_t" to="t_n" departLane="best" departSpeed="max" departPos="base" type="pas_passenger" />
    <trip id="pas_west_20" depart="146.64" from="w_t" to="t_e" departLane="best" departSpeed="max" departPos="base" type="pas_passenger" />
    <trip id="pas_south_16" depart="151.18" from="s_t" to="t_w" departLane="best" departSpeed="max" departPos="base" type="pas_passenger" />
    <trip id="pas_east_27" depart="152.11" from="e_t" to="t_s" departLane="best" departSpeed="max" departPos="base" type="pas_passenger" />
    <trip id="pas_west_21" depart="153.97" from="w_t" to="t_s" departLane="best" departSpeed="max" departPos="base" type="pas_passenger" />
    <trip id="pas_east_28" depart="157.75" from="e_t" to="t_n" departLane="best" departSpeed="max" departPos="base" type="pas_passenger" />
    <trip id="pas_south_17" depart="160.63" from="s_t" to="t_e" departLane="best" departSpeed="max" departPos="base" type="pas_passenger" />
    <trip id="pas_west_22" depart="161.30" from="w_t" to="t_n" departLane="best" departSpeed="max" departPos="base" type="pas_passenger" />
    <trip id="pas_east_29" depart="163.38" from="e_t" to="t_s" departLane="best" departSpeed="max" departPos="base" type="pas_passenger" />
    <trip id="pas_north_8" depart="165.52" from="n_t" to="t_s" departLane="best" departSpeed="max" departPos="base" type="pas_passenger" />
    <trip id="pas_west_23" depart="168.64" from="w_t" to="t_n" departLane="best" departSpeed="max" departPos="base" type="pas_passenger" />
    <trip id="pas_east_30" depart="169.01" from="e_t" to="t_s" departLane="best" departSpeed="max" departPos="base" type="pas_passenger" />
    <trip id="pas_south_18" depart="170.08" from="s_t" to="t_n" departLane="best" departSpeed="max" departPos="base" type="pas_passenger" />
    <trip id="pas_east_31" depart="174.65" from="e_t" to="t_n" departLane="best" departSpeed="max" departPos="base" type="pas_passenger" />
    <trip id="pas_west_24" depart="175.97" from="w_t" to="t_n" departLane="best" departSpeed="max" departPos="base" type="pas_passenger" />
    <trip id="pas_south_19" depart="179.53" from="s_t" to="t_e" departLane="best" departSpeed="max" departPos="base" type="pas_passenger" />
    <trip id="pas_east_32" depart="180.28" from="e_t" to="t_w" departLane="best" departSpeed="max" departPos="base" type="pas_passenger" />
    <trip id="pas_west_25" depart="183.30" from="w_t" to="t_n" departLane="best" departSpeed="max" departPos="base" type="pas_passenger" />
    <trip id="pas_east_33" depart="185.92" from="e_t" to="t_n" departLane="best" departSpeed="max" departPos="base" type="pas_passenger" />
    <trip id="pas_north_9" depart="186.21" from="n_t" to="t_e" departLane="best" departSpeed="max" departPos="base" type="pas_passenger" />
    <trip id="pas_south_20" depart="188.98" from="s_t" to="t_w" departLane="best" departSpeed="max" departPos="base" type="pas_passenger" />
    <trip id="pas_west_26" depart="190.63" from="w_t" to="t_e" departLane="best" departSpeed="max" departPos="base" type="pas_passenger" />
    <trip id="pas_east_34" depart="191.55" from="e_t" to="t_w" departLane="best" departSpeed="max" departPos="base" type="pas_passenger" />
    <trip id="pas_east_35" depart="197.18" from="e_t" to="t_s" departLane="best" departSpeed="max" departPos="base" type="pas_passenger" />
    <trip id="pas_west_27" depart="197.96" from="w_t" to="t_n" departLane="best" departSpeed="max" departPos="base" type="pas_passenger" />
    <trip id="pas_south_21" depart="198.43" from="s_t" to="t_e" departLane="best" departSpeed="max" departPos="base" type="pas_passenger" />
    <trip id="pas_east_36" depart="202.82" from="e_t" to="t_w" departLane="best" departSpeed="max" departPos="base" type="pas_passenger" />
    <trip id="pas_west_28" depart="205.30" from="w_t" to="t_e" departLane="best" departSpeed="max" departPos="base" type="pas_passenger" />
    <trip id="pas_north_10" depart="206.90" from="n_t" to="t_e" departLane="best" departSpeed="max" departPos="base" type="pas_passenger" />
    <trip id="pas_south_22" depart="207.87" from="s_t" to="t_e" departLane="best" departSpeed="max" departPos="base" type="pas_passenger" />
    <trip id="pas_east_37" depart="208.45" from="e_t" to="t_s" departLane="best" departSpeed="max" departPos="base" type="pas_passenger" />
    <trip id="pas_west_29" depart="212.63" from="w_t" to="t_e" departLane="best" departSpeed="max" departPos="base" type="pas_passenger" />
    <trip id="pas_east_38" depart="214.08" from="e_t" to="t_s" departLane="best" departSpeed="max" departPos="base" type="pas_passenger" />
    <trip id="pas_south_23" depart="217.32" from="s_t" to="t_w" departLane="best" departSpeed="max" departPos="base" type="pas_passenger" />
    <trip id="pas_east_39" depart="219.72" from="e_t" to="t_s" departLane="best" departSpeed="max" departPos="base" type="pas_passenger" />
    <trip id="pas_west_30" depart="219.96" from="w_t" to="t_n" departLane="best" departSpeed="max" departPos="base" type="pas_passenger" />
    <trip id="pas_east_40" depart="225.35" from="e_t" to="t_w" departLane="best" departSpeed="max" departPos="base" type="pas_passenger" />
    <trip id="pas_south_24" depart="226.77" from="s_t" to="t_n" departLane="best" departSpeed="max" departPos="base" type="pas_passenger" />
    <trip id="pas_west_31" depart="227.29" from="w_t" to="t_n" departLane="best" departSpeed="max" departPos="base" type="pas_passenger" />
    <trip id="pas_north_11" depart="227.59" from="n_t" to="t_e" departLane="best" departSpeed="max" departPos="base" type="pas_passenger" />
    <trip id="pas_east_41" depart="230.99" from="e_t" to="t_w" departLane="best" departSpeed="max" departPos="base" type="pas_passenger" />
    <trip id="pas_west_32" depart="234.62" from="w_t" to="t_s" departLane="best" departSpeed="max" departPos="base" type="pas_passenger" />
    <trip id="pas_south_25" depart="236.22" from="s_t" to="t_e" departLane="best" departSpeed="max" departPos="base" type="pas_passenger" />
    <trip id="pas_east_42" depart="236.62" from="e_t" to="t_n" departLane="best" departSpeed="max" departPos="base" type="pas_passenger" />
    <trip id="pas_west_33" depart="241.96" from="w_t" to="t_s" departLane="best" departSpeed="max" departPos="base" type="pas_passenger" />
    <trip id="pas_east_43" depart="242.25" from="e_t" to="t_s" departLane="best" departSpeed="max" departPos="base" type="pas_passenger" />
    <trip id="pas_south_26" depart="245.67" from="s_t" to="t_w" departLane="best" departSpeed="max" departPos="base" type="pas_passenger" />
    <trip id="pas_east_44" depart="247.89" from="e_t" to="t_w" departLane="best" departSpeed="max" departPos="base" type="pas_passenger" />
    <trip id="pas_north_12" depart="248.27" from="n_t" to="t_e" departLane="best" departSpeed="max" departPos="base" type="pas_passenger" />
    <trip id="pas_west_34" depart="249.29" from="w_t" to="t_e" departLane="best" departSpeed="max" departPos="base" type="pas_passenger" />
    <trip id="pas_east_45" depart="253.52" from="e_t" to="t_n" departLane="best" departSpeed="max" departPos="base" type="pas_passenger" />
    <trip id="pas_south_27" depart="255.12" from="s_t" to="t_e" departLane="best" departSpeed="max" departPos="base" type="pas_passenger" />
    <trip id="pas_west_35" depart="256.62" from="w_t" to="t_n" departLane="best" departSpeed="max" departPos="base" type="pas_passenger" />
    <trip id="pas_east_46" depart="259.15" from="e_t" to="t_n" departLane="best" departSpeed="max" departPos="base" type="pas_passenger" />
    <trip id="pas_west_36" depart="263.95" from="w_t" to="t_s" departLane="best" departSpeed="max" departPos="base" type="pas_passenger" />
    <trip id="pas_south_28" depart="264.57" from="s_t" to="t_e" departLane="best" departSpeed="max" departPos="base" type="pas_passenger" />
    <trip id="pas_east_47" depart="264.79" from="e_t" to="t_w" departLane="best" departSpeed="max" departPos="base" type="pas_passenger" />
    <trip id="pas_north_13" depart="268.96" from="n_t" to="t_s" departLane="best" departSpeed="max" departPos="base" type="pas_passenger" />
    <trip id="pas_east_48" depart="270.42" from="e_t" to="t_s" departLane="best" departSpeed="max" departPos="base" type="pas_passenger" />
    <trip id="pas_west_37" depart="271.28" from="w_t" to="t_s" departLane="best" departSpeed="max" departPos="base" type="pas_passenger" />
    <trip id="pas_south_29" depart="274.02" from="s_t" to="t_e" departLane="best" departSpeed="max" departPos="base" type="pas_passenger" />
    <trip id="pas_east_49" depart="276.06" from="e_t" to="t_w" departLane="best" departSpeed="max" departPos="base" type="pas_passenger" />
    <trip id="pas_west_38" depart="278.62" from="w_t" to="t_s" departLane="best" departSpeed="max" departPos="base" type="pas_passenger" />
    <trip id="pas_east_50" depart="281.69" from="e_t" to="t_n" departLane="best" departSpeed="max" departPos="base" type="pas_passenger" />
    <trip id="pas_south_30" depart="283.46" from="s_t" to="t_n" departLane="best" departSpeed="max" departPos="base" type="pas_passenger" />
    <trip id="pas_west_39" depart="285.95" from="w_t" to="t_s" departLane="best" departSpeed="max" departPos="base" type="pas_passenger" />
    <trip id="pas_east_51" depart="287.32" from="e_t" to="t_s" departLane="best" departSpeed="max" departPos="base" type="pas_passenger" />
    <trip id="pas_north_14" depart="289.65" from="n_t" to="t_w" departLane="best" departSpeed="max" departPos="base" type="pas_passenger" />
    <trip id="pas_south_31" depart="292.91" from="s_t" to="t_w" departLane="best" departSpeed="max" departPos="base" type="pas_passenger" />
    <trip id="pas_east_52" depart="292.96" from="e_t" to="t_n" departLane="best" departSpeed="max" departPos="base" type="pas_passenger" />
    <trip id="pas_west_40" depart="293.28" from="w_t" to="t_e" departLane="best" departSpeed="max" departPos="base" type="pas_passenger" />
    <trip id="pas_east_53" depart="298.59" from="e_t" to="t_s" departLane="best" departSpeed="max" departPos="base" type="pas_passenger" />
    <trip id="pas_west_41" depart="300.61" from="w_t" to="t_n" departLane="best" departSpeed="max" departPos="base" type="pas_passenger" />
    <trip id="pas_south_32" depart="302.36" from="s_t" to="t_e" departLane="best" departSpeed="max" departPos="base" type="pas_passenger" />
    <trip id="pas_east_54" depart="304.23" from="e_t" to="t_n" departLane="best" departSpeed="max" departPos="base" type="pas_passenger" />
    <trip id="pas_west_42" depart="307.94" from="w_t" to="t_s" departLane="best" departSpeed="max" departPos="base" type="pas_passenger" />
    <trip id="pas_east_55" depart="309.86" from="e_t" to="t_n" departLane="best" departSpeed="max" departPos="base" type="pas_passenger" />
    <trip id="pas_north_15" depart="310.34" from="n_t" to="t_w" departLane="best" departSpeed="max" departPos="base" type="pas_passenger" />
    <trip id="pas_south_33" depart="311.81" from="s_t" to="t_e" departLane="best" departSpeed="max" departPos="base" type="pas_passenger" />
    <trip id="pas_west_43" depart="315.27" from="w_t" to="t_n" departLane="best" departSpeed="max" departPos="base" type="pas_passenger" />
    <trip id="pas_east_56" depart="315.49" from="e_t" to="t_n" departLane="best" departSpeed="max" departPos="base" type="pas_passenger" />
    <trip id="pas_east_57" depart="321.13" from="e_t" to="t_w" departLane="best" departSpeed="max" departPos="base" type="pas_passenger" />
    <trip id="pas_south_34" depart="321.26" from="s_t" to="t_e" departLane="best" departSpeed="max" departPos="base" type="pas_passenger" />
    <trip id="pas_west_44" depart="322.61" from="w_t" to="t_n" departLane="best" departSpeed="max" departPos="base" type="pas_passenger" />
    <trip id="pas_east_58" depart="326.76" from="e_t" to="t_s" departLane="best" departSpeed="max" departPos="base" type="pas_passenger" />
    <trip id="pas_west_45" depart="329.94" from="w_t" to="t_n" departLane="best" departSpeed="max" departPos="base" type="pas_passenger" />
    <trip id="pas_south_35" depart="330.71" from="s_t" to="t_n" departLane="best" departSpeed="max" departPos="base" type="pas_passenger" />
    <trip id="pas_north_16" depart="331.03" from="n_t" to="t_e" departLane="best" departSpeed="max" departPos="base" type="pas_passenger" />
    <trip id="pas_east_59" depart="332.39" from="e_t" to="t_s" departLane="best" departSpeed="max" departPos="base" type="pas_passenger" />
    <trip id="pas_west_46" depart="337.27" from="w_t" to="t_n" departLane="best" departSpeed="max" departPos="base" type="pas_passenger" />
    <trip id="pas_east_60" depart="338.03" from="e_t" to="t_s" departLane="best" departSpeed="max" departPos="base" type="pas_passenger" />
    <trip id="pas_south_36" depart="340.16" from="s_t" to="t_e" departLane="best" departSpeed="max" departPos="base" type="pas_passenger" />
    <trip id="pas_east_61" depart="343.66" from="e_t" to="t_s" departLane="best" departSpeed="max" departPos="base" type="pas_passenger" />
    <trip id="pas_west_47" depart="344.60" from="w_t" to="t_e" departLane="best" departSpeed="max" departPos="base" type="pas_passenger" />
    <trip id="pas_east_62" depart="349.30" from="e_t" to="t_w" departLane="best" departSpeed="max" departPos="base" type="pas_passenger" />
    <trip id="pas_south_37" depart="349.61" from="s_t" to="t_n" departLane="best" departSpeed="max" departPos="base" type="pas_passenger" />
    <trip id="pas_north_17" depart="351.72" from="n_t" to="t_w" departLane="best" departSpeed="max" departPos="base" type="pas_passenger" />
    <trip id="pas_west_48" depart="351.93" from="w_t" to="t_s" departLane="best" departSpeed="max" departPos="base" type="pas_passenger" />
    <trip id="pas_east_63" depart="354.93" from="e_t" to="t_w" departLane="best" departSpeed="max" departPos="base" type="pas_passenger" />
    <trip id="pas_south_38" depart="359.06" from="s_t" to="t_n" departLane="best" departSpeed="max" departPos="base" type="pas_passenger" />
    <trip id="pas_west_49" depart="359.27" from="w_t" to="t_s" departLane="best" departSpeed="max" departPos="base" type="pas_passenger" />
    <trip id="pas_east_64" depart="360.56" from="e_t" to="t_n" departLane="best" departSpeed="max" departPos="base" type="pas_passenger" />
    <trip id="pas_east_65" depart="366.20" from="e_t" to="t_n" departLane="best" departSpeed="max" departPos="base" type="pas_passenger" />
    <trip id="pas_west_50" depart="366.60" from="w_t" to="t_e" departLane="best" departSpeed="max" departPos="base" type="pas_passenger" />
    <trip id="pas_south_39" depart="368.50" from="s_t" to="t_e" departLane="best" departSpeed="max" departPos="base" type="pas_passenger" />
    <trip id="pas_east_66" depart="371.83" from="e_t" to="t_s" departLane="best" departSpeed="max" departPos="base" type="pas_passenger" />
    <trip id="pas_north_18" depart="372.41" from="n_t" to="t_w" departLane="best" departSpeed="max" departPos="base" type="pas_passenger" />
    <trip id="pas_west_51" depart="373.93" from="w_t" to="t_s" departLane="best" departSpeed="max" departPos="base" type="pas_passenger" />
    <trip id="pas_east_67" depart="377.46" from="e_t" to="t_w" departLane="best" departSpeed="max" departPos="base" type="pas_passenger" />
    <trip id="pas_south_40" depart="377.95" from="s_t" to="t_n" departLane="best" departSpeed="max" departPos="base" type="pas_passenger" />
    <trip id="pas_west_52" depart="381.26" from="w_t" to="t_e" departLane="best" departSpeed="max" departPos="base" type="pas_passenger" />
    <trip id="pas_east_68" depart="383.10" from="e_t" to="t_s" departLane="best" departSpeed="max" departPos="base" type="pas_passenger" />
    <trip id="pas_south_41" depart="387.40" from="s_t" to="t_e" departLane="best" departSpeed="max" departPos="base" type="pas_passenger" />
    <trip id="pas_west_53" depart="388.59" from="w_t" to="t_s" departLane="best" departSpeed="max" departPos="base" type="pas_passenger" />
    <trip id="pas_east_69" depart="388.73" from="e_t" to="t_n" departLane="best" departSpeed="max" departPos="base" type="pas_passenger" />
    <trip id="pas_north_19" depart="393.10" from="n_t" to="t_w" departLane="best" departSpeed="max" departPos="base" type="pas_passenger" />
    <trip id="pas_east_70" depart="394.37" from="e_t" to="t_s" departLane="best" departSpeed="max" departPos="base" type="pas_passenger" />
    <trip id="pas_west_54" depart="395.93" from="w_t" to="t_s" departLane="best" departSpeed="max" departPos="base" type="pas_passenger" />
    <trip id="pas_south_42" depart="396.85" from="s_t" to="t_e" departLane="best" departSpeed="max" departPos="base" type="pas_passenger" />
    <trip id="pas_east_71" depart="400.00" from="e_t" to="t_n" departLane="best" departSpeed="max" departPos="base" type="pas_passenger" />
    <trip id="pas_west_55" depart="403.26" from="w_t" to="t_s" departLane="best" departSpeed="max" departPos="base" type="pas_passenger" />
    <trip id="pas_east_72" depart="405.63" from="e_t" to="t_w" departLane="best" departSpeed="max" departPos="base" type="pas_passenger" />
    <trip id="pas_south_43" depart="406.30" from="s_t" to="t_w" departLane="best" departSpeed="max" departPos="base" type="pas_passenger" />
    <trip id="pas_west_56" depart="410.59" from="w_t" to="t_e" departLane="best" departSpeed="max" departPos="base" type="pas_passenger" />
    <trip id="pas_east_73" depart="411.27" from="e_t" to="t_s" departLane="best" departSpeed="max" departPos="base" type="pas_passenger" />
    <trip id="pas_north_20" depart="413.79" from="n_t" to="t_w" departLane="best" departSpeed="max" departPos="base" type="pas_passenger" />
    <trip id="pas_south_44" depart="415.75" from="s_t" to="t_w" departLane="best" departSpeed="max" departPos="base" type="pas_passenger" />
    <trip id="pas_east_74" depart="416.90" from="e_t" to="t_s" departLane="best" departSpeed="max" departPos="base" type="pas_passenger" />
    <trip id="pas_west_57" depart="417.92" from="w_t" to="t_e" departLane="best" departSpeed="max" departPos="base" type="pas_passenger" />
    <trip id="pas_east_75" depart="422.54" from="e_t" to="t_w" departLane="best" departSpeed="max" departPos="base" type="pas_passenger" />
    <trip id="pas_south_45" depart="425.20" from="s_t" to="t_n" departLane="best" departSpeed="max" departPos="base" type="pas_passenger" />
    <trip id="pas_west_58" depart="425.25" from="w_t" to="t_s" departLane="best" departSpeed="max" departPos="base" type="pas_passenger" />
    <trip id="pas_east_76" depart="428.17" from="e_t" to="t_w" departLane="best" departSpeed="max" departPos="base" type="pas_passenger" />
    <trip id="pas_west_59" depart="432.59" from="w_t" to="t_s" departLane="best" departSpeed="max" departPos="base" type="pas_passenger" />
    <trip id="pas_east_77" depart="433.80" from="e_t" to="t_w" departLane="best" departSpeed="max" departPos="base" type="pas_passenger" />
    <trip id="pas_north_21" depart="434.48" from="n_t" to="t_s" departLane="best" departSpeed="max" departPos="base" type="pas_passenger" />
    <trip id="pas_south_46" depart="434.65" from="s_t" to="t_e" departLane="best" departSpeed="max" departPos="base" type="pas_passenger" />
    <trip id="pas_east_78" depart="439.44" from="e_t" to="t_n" departLane="best" departSpeed="max" departPos="base" type="pas_passenger" />
    <trip id="pas_west_60" depart="439.92" from="w_t" to="t_e" departLane="best" departSpeed="max" departPos="base" type="pas_passenger" />
    <trip id="pas_south_47" depart="444.09" from="s_t" to="t_e" departLane="best" departSpeed="max" departPos="base" type="pas_passenger" />
    <trip id="pas_east_79" depart="445.07" from="e_t" to="t_n" departLane="best" departSpeed="max" departPos="base" type="pas_passenger" />
    <trip id="pas_west_61" depart="447.25" from="w_t" to="t_s" departLane="best" departSpeed="max" departPos="base" type="pas_passenger" />