<?xml version="1.0" encoding="UTF-8"?>

<!-- generated on 2024-01-11 19:58:47.532790 by randomTrips.py v1_19_0+0000-baa66a0f364
<configuration>
    <net-file value="osm.net.xml"/>
    <additional-files value="osm.add.xml"/>
    <output-trip-file value="osm.truck.trips.xml"/>
    <prefix value="truck"/>
    <trip-attributes value="guiShape=&quot;truck&quot;  departLane=&quot;best&quot; departSpeed=&quot;max&quot; departPos=&quot;random&quot;"/>
    <vehicle-class value="truck"/>
    <end value="40000.0"/>
    <period value="17.0"/>
    <binomial value="5"/>
</configuration>
-->

<routes xmlns:xsi="http://www.w3.org/2001/XMLSchema-instance" xsi:noNamespaceSchemaLocation="http://sumo.dlr.de/xsd/routes_file.xsd">
    <vType id="truck_truck" vClass="truck" guiShape="truck"/>
    <trip id="truck0" depart="3.00" from="479687736#3" to="150921535" departLane="best" departSpeed="max" departPos="random" type="truck_truck"/>
    <trip id="truck1" depart="19.00" from="150921721#0" to="150837528#2" departLane="best" departSpeed="max" departPos="random" type="truck_truck"/>
    <!-- <trip id="truck2" depart="24.00" from="-257846693#3" to="-150837077#0" departLane="best" departSpeed="max" departPos="random" type="truck_truck"/>
    <trip id="truck3" depart="52.00" from="479688999#0" to="-193638676#0" departLane="best" departSpeed="max" departPos="random" type="truck_truck"/>
    <trip id="truck4" depart="56.00" from="257571787" to="150837478#9" departLane="best" departSpeed="max" departPos="random" type="truck_truck"/>
    <trip id="truck5" depart="57.00" from="-150837238#1" to="480188362#2" departLane="best" departSpeed="max" departPos="random" type="truck_truck"/>
    <trip id="truck6" depart="71.00" from="690332512#7" to="150837246" departLane="best" departSpeed="max" departPos="random" type="truck_truck"/>
    <trip id="truck7" depart="76.00" from="-193107812#0" to="-70193391#2" departLane="best" departSpeed="max" departPos="random" type="truck_truck"/>
    <trip id="truck8" depart="82.00" from="193107835#0" to="196125606#0" departLane="best" departSpeed="max" departPos="random" type="truck_truck"/>
    <trip id="truck9" depart="92.00" from="-479688999#2" to="193161028#1" departLane="best" departSpeed="max" departPos="random" type="truck_truck"/>
    <trip id="truck10" depart="115.00" from="70193391#1" to="-150837268#1" departLane="best" departSpeed="max" departPos="random" type="truck_truck"/>
    <trip id="truck11" depart="132.00" from="-941715210#2" to="150837426" departLane="best" departSpeed="max" departPos="random" type="truck_truck"/>
    <trip id="truck12" depart="171.00" from="479687736#3" to="653736385#1" departLane="best" departSpeed="max" departPos="random" type="truck_truck"/>
    <trip id="truck13" depart="200.00" from="479690295#1" to="-150837442#0" departLane="best" departSpeed="max" departPos="random" type="truck_truck"/>
    <trip id="truck14" depart="221.00" from="479780488#3" to="150837318#0" departLane="best" departSpeed="max" departPos="random" type="truck_truck"/>
    <trip id="truck15" depart="227.00" from="-193161031" to="-150837523#1" departLane="best" departSpeed="max" departPos="random" type="truck_truck"/>
    <trip id="truck16" depart="228.00" from="193107812#1" to="-150837478#7" departLane="best" departSpeed="max" departPos="random" type="truck_truck"/>
    <trip id="truck17" depart="271.00" from="-150837238#4" to="-150921708#2" departLane="best" departSpeed="max" departPos="random" type="truck_truck"/>
    <trip id="truck18" depart="354.00" from="150837268#4" to="690332512#8" departLane="best" departSpeed="max" departPos="random" type="truck_truck"/>
    <trip id="truck19" depart="359.00" from="150837314" to="-150837303#0" departLane="best" departSpeed="max" departPos="random" type="truck_truck"/>
    <trip id="truck20" depart="366.00" from="150837482#5" to="150921480#0" departLane="best" departSpeed="max" departPos="random" type="truck_truck"/>
    <trip id="truck21" depart="383.00" from="-150813160#2" to="-193638674" departLane="best" departSpeed="max" departPos="random" type="truck_truck"/>
    <trip id="truck22" depart="413.00" from="150837172#1" to="-480188362#1" departLane="best" departSpeed="max" departPos="random" type="truck_truck"/>
    <trip id="truck23" depart="414.00" from="150837268#6" to="-150812864#7" departLane="best" departSpeed="max" departPos="random" type="truck_truck"/>
    <trip id="truck24" depart="421.00" from="-150837478#13" to="150837165" departLane="best" departSpeed="max" departPos="random" type="truck_truck"/>
    <trip id="truck25" depart="434.00" from="-196125604" to="-479780488#1" departLane="best" departSpeed="max" departPos="random" type="truck_truck"/>
    <trip id="truck26" depart="455.00" from="-150921720#1" to="150837193#1" departLane="best" departSpeed="max" departPos="random" type="truck_truck"/>
    <trip id="truck27" depart="474.00" from="-150837407#2" to="479688692#0" departLane="best" departSpeed="max" departPos="random" type="truck_truck"/>
    <trip id="truck28" depart="492.00" from="257571793#0" to="150921818#4" departLane="best" departSpeed="max" departPos="random" type="truck_truck"/>
    <trip id="truck29" depart="497.00" from="70193392#6" to="-150837499#3" departLane="best" departSpeed="max" departPos="random" type="truck_truck"/>
    <trip id="truck30" depart="500.00" from="150837077#0" to="-150837407#2" departLane="best" departSpeed="max" departPos="random" type="truck_truck"/>
    <trip id="truck31" depart="501.00" from="150921480#1" to="479688692#1" departLane="best" departSpeed="max" departPos="random" type="truck_truck"/>
    <trip id="truck32" depart="504.00" from="150837482#3" to="-941459814#0" departLane="best" departSpeed="max" departPos="random" type="truck_truck"/>
    <trip id="truck33" depart="533.00" from="-150837497#1" to="150837303#0" departLane="best" departSpeed="max" departPos="random" type="truck_truck"/>
    <trip id="truck34" depart="536.00" from="-690332512#5" to="-150921477#0" departLane="best" departSpeed="max" departPos="random" type="truck_truck"/>
    <trip id="truck35" depart="537.00" from="150837497#0" to="479690293#2" departLane="best" departSpeed="max" departPos="random" type="truck_truck"/>
    <trip id="truck36" depart="570.00" from="673765757#8" to="-150837499#1" departLane="best" departSpeed="max" departPos="random" type="truck_truck"/>
    <trip id="truck37" depart="583.00" from="-601770472#2" to="150921818#4" departLane="best" departSpeed="max" departPos="random" type="truck_truck"/>
    <trip id="truck38" depart="626.00" from="673765757#2" to="150837482#2" departLane="best" departSpeed="max" departPos="random" type="truck_truck"/>
    <trip id="truck39" depart="626.00" from="-150921687#3" to="479687736#1" departLane="best" departSpeed="max" departPos="random" type="truck_truck"/>
    <trip id="truck40" depart="646.00" from="-150921818#1" to="193638676#2" departLane="best" departSpeed="max" departPos="random" type="truck_truck"/>
    <trip id="truck41" depart="664.00" from="150837523#1" to="666936287" departLane="best" departSpeed="max" departPos="random" type="truck_truck"/>
    <trip id="truck42" depart="686.00" from="-150837268#2" to="150837433#2" departLane="best" departSpeed="max" departPos="random" type="truck_truck"/>
    <trip id="truck43" depart="725.00" from="150837499#8" to="-941715210#2" departLane="best" departSpeed="max" departPos="random" type="truck_truck"/>
    <trip id="truck44" depart="730.00" from="-150837199#1" to="150837523#2" departLane="best" departSpeed="max" departPos="random" type="truck_truck"/>
    <trip id="truck45" depart="742.00" from="150837427#1" to="150837238#6" departLane="best" departSpeed="max" departPos="random" type="truck_truck"/>
    <trip id="truck46" depart="750.00" from="-150921661#0" to="-150837528#0" departLane="best" departSpeed="max" departPos="random" type="truck_truck"/>
    <trip id="truck47" depart="787.00" from="150837482#7" to="150837528#6" departLane="best" departSpeed="max" departPos="random" type="truck_truck"/>
    <trip id="truck48" depart="795.00" from="-150837268#2" to="-150837442#0" departLane="best" departSpeed="max" departPos="random" type="truck_truck"/>
    <trip id="truck49" depart="800.00" from="-150837453#0" to="t_w" departLane="best" departSpeed="max" departPos="random" type="truck_truck"/>
    <trip id="truck50" depart="810.00" from="479690289#10" to="-150921687#2" departLane="best" departSpeed="max" departPos="random" type="truck_truck"/>
    <trip id="truck51" depart="849.00" from="479688953#1" to="479690293#1" departLane="best" departSpeed="max" departPos="random" type="truck_truck"/>
    <trip id="truck52" depart="850.00" from="690332512#5" to="70193388#5" departLane="best" departSpeed="max" departPos="random" type="truck_truck"/>
    <trip id="truck53" depart="850.00" from="-70193388#5" to="-193107842" departLane="best" departSpeed="max" departPos="random" type="truck_truck"/>
    <trip id="truck54" depart="851.00" from="-479780488#9" to="-690332521#0" departLane="best" departSpeed="max" departPos="random" type="truck_truck"/>
    <trip id="truck55" depart="868.00" from="-150837147#1" to="257846693#2" departLane="best" departSpeed="max" departPos="random" type="truck_truck"/>
    <trip id="truck56" depart="877.00" from="150837478#8" to="-537254108" departLane="best" departSpeed="max" departPos="random" type="truck_truck"/>
    <trip id="truck57" depart="905.00" from="257846693#0" to="-601770472#2" departLane="best" departSpeed="max" departPos="random" type="truck_truck"/>
    <trip id="truck58" depart="922.00" from="-602111789" to="-150921818#0" departLane="best" departSpeed="max" departPos="random" type="truck_truck"/>
    <trip id="truck59" depart="963.00" from="480188364#1" to="-150921513" departLane="best" departSpeed="max" departPos="random" type="truck_truck"/>
    <trip id="truck60" depart="977.00" from="-150837077#0" to="150837478#12" departLane="best" departSpeed="max" departPos="random" type="truck_truck"/>
    <trip id="truck61" depart="979.00" from="-150837497#1" to="-150921822#3" departLane="best" departSpeed="max" departPos="random" type="truck_truck"/>
    <trip id="truck62" depart="980.00" from="150837528#3" to="-479688953#1" departLane="best" departSpeed="max" departPos="random" type="truck_truck"/>
    <trip id="truck63" depart="995.00" from="70192998#1" to="150837528#6" departLane="best" departSpeed="max" departPos="random" type="truck_truck"/>
    <trip id="truck64" depart="1020.00" from="-150837433#1" to="-150837443" departLane="best" departSpeed="max" departPos="random" type="truck_truck"/>
    <trip id="truck65" depart="1023.00" from="E4" to="-690332512#3" departLane="best" departSpeed="max" departPos="random" type="truck_truck"/>
    <trip id="truck66" depart="1073.00" from="70193392#2" to="479688953#1" departLane="best" departSpeed="max" departPos="random" type="truck_truck"/>
    <trip id="truck67" depart="1093.00" from="-150837478#8" to="-150837268#3" departLane="best" departSpeed="max" departPos="random" type="truck_truck"/>
    <trip id="truck68" depart="1097.00" from="-150921477#1" to="-150837347#1" departLane="best" departSpeed="max" departPos="random" type="truck_truck"/>
    <trip id="truck69" depart="1115.00" from="941745039#7" to="-150837154" departLane="best" departSpeed="max" departPos="random" type="truck_truck"/> -->
    <trip id="truck70" depart="1147.00" from="150921822#1" to="941745039#3" departLane="best" departSpeed="max" departPos="random" type="truck_truck"/>
    <trip id="truck71" depart="1165.00" from="-150921753#1" to="70193392#4" departLane="best" departSpeed="max" departPos="random" type="truck_truck"/>
    <trip id="truck72" depart="1277.00" from="-150837407#0" to="-259055473#0" departLane="best" departSpeed="max" departPos="random" type="truck_truck"/>
    <trip id="truck73" depart="1297.00" from="941715210#5" to="150837497#1" departLane="best" departSpeed="max" departPos="random" type="truck_truck"/>
    <trip id="truck74" depart="1317.00" from="-150837347#0" to="-150837478#3" departLane="best" departSpeed="max" departPos="random" type="truck_truck"/>
    <trip id="truck75" depart="1325.00" from="150837478#2" to="150921708#2" departLane="best" departSpeed="max" departPos="random" type="truck_truck"/>
    <trip id="truck76" depart="1352.00" from="479687736#5" to="70193388#2" departLane="best" departSpeed="max" departPos="random" type="truck_truck"/>
    <trip id="truck77" depart="1356.00" from="-150921822#1" to="150837220" departLane="best" departSpeed="max" departPos="random" type="truck_truck"/>
    <trip id="truck78" depart="1403.00" from="150812864#2" to="479690281#4" departLane="best" departSpeed="max" departPos="random" type="truck_truck"/>
    <trip id="truck79" depart="1404.00" from="70193383#0" to="150837077#3" departLane="best" departSpeed="max" departPos="random" type="truck_truck"/>
    <trip id="truck80" depart="1411.00" from="150837077#0" to="653736385#1" departLane="best" departSpeed="max" departPos="random" type="truck_truck"/>
    <trip id="truck81" depart="1415.00" from="150812864#10" to="70193383#1" departLane="best" departSpeed="max" departPos="random" type="truck_truck"/>
    <trip id="truck82" depart="1427.00" from="-150837482#4" to="-150837254#0" departLane="best" departSpeed="max" departPos="random" type="truck_truck"/>
    <trip id="truck83" depart="1437.00" from="-601770472#1" to="259055473#3" departLane="best" departSpeed="max" departPos="random" type="truck_truck"/>
    <trip id="truck84" depart="1444.00" from="150837389#1" to="150837528#0" departLane="best" departSpeed="max" departPos="random" type="truck_truck"/>
    <trip id="truck85" depart="1449.00" from="-150837528#0" to="-150837528#6" departLane="best" departSpeed="max" departPos="random" type="truck_truck"/>
    <trip id="truck86" depart="1477.00" from="-193161028#1" to="479690025#0" departLane="best" departSpeed="max" departPos="random" type="truck_truck"/>
    <trip id="truck87" depart="1483.00" from="479688691#2" to="479690289#11" departLane="best" departSpeed="max" departPos="random" type="truck_truck"/>
    <trip id="truck88" depart="1495.00" from="-150837427#3" to="-150837200#0" departLane="best" departSpeed="max" departPos="random" type="truck_truck"/>
    <trip id="truck89" depart="1506.00" from="-150837318#2" to="673765757#7" departLane="best" departSpeed="max" departPos="random" type="truck_truck"/>
    <trip id="truck90" depart="1513.00" from="257571789#0" to="196125603" departLane="best" departSpeed="max" departPos="random" type="truck_truck"/>
    <trip id="truck91" depart="1535.00" from="479780488#3" to="-150837222" departLane="best" departSpeed="max" departPos="random" type="truck_truck"/>
    <trip id="truck92" depart="1559.00" from="-150837203#1" to="150921513" departLane="best" departSpeed="max" departPos="random" type="truck_truck"/>
    <trip id="truck93" depart="1566.00" from="150837379#2" to="e_t" departLane="best" departSpeed="max" departPos="random" type="truck_truck"/>
    <trip id="truck94" depart="1566.00" from="150837433#2" to="e_t" departLane="best" departSpeed="max" departPos="random" type="truck_truck"/>
    <trip id="truck95" depart="1590.00" from="-150837198#2" to="150837238#5" departLane="best" departSpeed="max" departPos="random" type="truck_truck"/>
    <trip id="truck96" depart="1605.00" from="150921756#0" to="150837349" departLane="best" departSpeed="max" departPos="random" type="truck_truck"/>
    <trip id="truck97" depart="1622.00" from="-193161031" to="70193388#5" departLane="best" departSpeed="max" departPos="random" type="truck_truck"/>
    <trip id="truck98" depart="1634.00" from="-480188362#1" to="941715210#3" departLane="best" departSpeed="max" departPos="random" type="truck_truck"/>
    <trip id="truck99" depart="1640.00" from="150837195#1" to="-150837465#0" departLane="best" departSpeed="max" departPos="random" type="truck_truck"/>
    <trip id="truck100" depart="1659.00" from="601770472#1" to="-150837482#0" departLane="best" departSpeed="max" departPos="random" type="truck_truck"/>
    <trip id="truck101" depart="1700.00" from="-479688692#1" to="150837436" departLane="best" departSpeed="max" departPos="random" type="truck_truck"/>
    <trip id="truck102" depart="1726.00" from="70193383#0" to="-150837443" departLane="best" departSpeed="max" departPos="random" type="truck_truck"/>
    <trip id="truck103" depart="1734.00" from="t_n" to="-150813160#0" departLane="best" departSpeed="max" departPos="random" type="truck_truck"/>
    <trip id="truck104" depart="1744.00" from="479690289#11" to="150837528#1" departLane="best" departSpeed="max" departPos="random" type="truck_truck"/>
    <trip id="truck105" depart="1754.00" from="-479690293#2" to="-150921822#4" departLane="best" departSpeed="max" departPos="random" type="truck_truck"/>
    <trip id="truck106" depart="1773.00" from="479690294#0" to="-193107835#0" departLane="best" departSpeed="max" departPos="random" type="truck_truck"/>
    <trip id="truck107" depart="1786.00" from="257846693#4" to="150837427#2" departLane="best" departSpeed="max" departPos="random" type="truck_truck"/>
    <trip id="truck108" depart="1789.00" from="-941715210#2" to="479690289#10" departLane="best" departSpeed="max" departPos="random" type="truck_truck"/>
    <trip id="truck109" depart="1803.00" from="-479780488#9" to="-150837528#2" departLane="best" departSpeed="max" departPos="random" type="truck_truck"/>
    <trip id="truck110" depart="1822.00" from="-150837478#7" to="150837318#0" departLane="best" departSpeed="max" departPos="random" type="truck_truck"/>
    <trip id="truck111" depart="1837.00" from="-257846693#6" to="150812864#6" departLane="best" departSpeed="max" departPos="random" type="truck_truck"/>
    <trip id="truck112" depart="1849.00" from="-150837295#0" to="-259055473#0" departLane="best" departSpeed="max" departPos="random" type="truck_truck"/>
    <trip id="truck113" depart="1897.00" from="-150921687#2" to="-479690293#2" departLane="best" departSpeed="max" departPos="random" type="truck_truck"/>
    <trip id="truck114" depart="1909.00" from="479688691#0" to="479780488#7" departLane="best" departSpeed="max" departPos="random" type="truck_truck"/>
    <trip id="truck115" depart="1915.00" from="150837077#6" to="150837528#6" departLane="best" departSpeed="max" departPos="random" type="truck_truck"/>
    <trip id="truck116" depart="1915.00" from="150837433#2" to="-150837379#1" departLane="best" departSpeed="max" departPos="random" type="truck_truck"/>
    <trip id="truck117" depart="1923.00" from="-193638674" to="150837482#0" departLane="best" departSpeed="max" departPos="random" type="truck_truck"/>
    <trip id="truck118" depart="2030.00" from="479690289#11" to="-150837077#5" departLane="best" departSpeed="max" departPos="random" type="truck_truck"/>
    <trip id="truck119" depart="2038.00" from="-150837426" to="-509003986" departLane="best" departSpeed="max" departPos="random" type="truck_truck"/>
    <trip id="truck120" depart="2041.00" from="-150837200#0" to="150837276#2" departLane="best" departSpeed="max" departPos="random" type="truck_truck"/>
    <trip id="truck121" depart="2075.00" from="150837528#6" to="193161031" departLane="best" departSpeed="max" departPos="random" type="truck_truck"/>
    <trip id="truck122" depart="2085.00" from="-690332521#1" to="-150837444" departLane="best" departSpeed="max" departPos="random" type="truck_truck"/>
    <trip id="truck123" depart="2104.00" from="-70193392#6" to="150837203#1" departLane="best" departSpeed="max" departPos="random" type="truck_truck"/>
    <trip id="truck124" depart="2104.00" from="-196125606#1" to="-150837268#7" departLane="best" departSpeed="max" departPos="random" type="truck_truck"/>
    <trip id="truck125" depart="2117.00" from="-150921818#2" to="-479690293#2" departLane="best" departSpeed="max" departPos="random" type="truck_truck"/>
    <trip id="truck126" depart="2132.00" from="-70193383#3" to="-479688691#0" departLane="best" departSpeed="max" departPos="random" type="truck_truck"/>
    <trip id="truck127" depart="2141.00" from="-150837433#2" to="480188362#2" departLane="best" departSpeed="max" departPos="random" type="truck_truck"/>
    <trip id="truck128" depart="2204.00" from="-150837077#6" to="150837523#7" departLane="best" departSpeed="max" departPos="random" type="truck_truck"/>
    <trip id="truck129" depart="2237.00" from="193161028#1" to="150837433#0" departLane="best" departSpeed="max" departPos="random" type="truck_truck"/>
    <trip id="truck130" depart="2274.00" from="479690281#5" to="-150813160#1" departLane="best" departSpeed="max" departPos="random" type="truck_truck"/>
    <trip id="truck131" depart="2287.00" from="479687736#2" to="-690332512#1" departLane="best" departSpeed="max" departPos="random" type="truck_truck"/>
    <trip id="truck132" depart="2326.00" from="-150921687#2" to="150837268#9" departLane="best" departSpeed="max" departPos="random" type="truck_truck"/>
    <trip id="truck133" depart="2332.00" from="-150837347#0" to="-257571793#1" departLane="best" departSpeed="max" departPos="random" type="truck_truck"/>
    <trip id="truck134" depart="2383.00" from="150837443" to="150921708#2" departLane="best" departSpeed="max" departPos="random" type="truck_truck"/>
    <trip id="truck135" depart="2392.00" from="-601770472#1" to="-150837077#6" departLane="best" departSpeed="max" departPos="random" type="truck_truck"/>
    <trip id="truck136" depart="2415.00" from="-150921513" to="479688691#2" departLane="best" departSpeed="max" departPos="random" type="truck_truck"/>
    <trip id="truck137" depart="2458.00" from="479690302#2" to="-150837193#0" departLane="best" departSpeed="max" departPos="random" type="truck_truck"/>
    <trip id="truck138" depart="2483.00" from="-150812864#7" to="479687736#2" departLane="best" departSpeed="max" departPos="random" type="truck_truck"/>
    <trip id="truck139" depart="2486.00" from="259055473#2" to="-150921477#0" departLane="best" departSpeed="max" departPos="random" type="truck_truck"/>
    <trip id="truck140" depart="2489.00" from="-150837478#5" to="-150837497#1" departLane="best" departSpeed="max" departPos="random" type="truck_truck"/>
    <trip id="truck141" depart="2526.00" from="-150921753#0" to="-150837433#2" departLane="best" departSpeed="max" departPos="random" type="truck_truck"/>
    <trip id="truck142" depart="2544.00" from="150921661#0" to="150837379#2" departLane="best" departSpeed="max" departPos="random" type="truck_truck"/>
    <trip id="truck143" depart="2556.00" from="-150837077#6" to="-150837191#1" departLane="best" departSpeed="max" departPos="random" type="truck_truck"/>
    <trip id="truck144" depart="2556.00" from="-150921818#2" to="-150812841#0" departLane="best" departSpeed="max" departPos="random" type="truck_truck"/>
    <trip id="truck145" depart="2584.00" from="259055473#3" to="150837172#2" departLane="best" departSpeed="max" departPos="random" type="truck_truck"/>
    <trip id="truck146" depart="2597.00" from="-150837389#1" to="479690302#1" departLane="best" departSpeed="max" departPos="random" type="truck_truck"/>
    <trip id="truck147" depart="2602.00" from="257571793#1" to="479687736#2" departLane="best" departSpeed="max" departPos="random" type="truck_truck"/>
    <trip id="truck148" depart="2613.00" from="-150837195#0" to="257846693#5" departLane="best" departSpeed="max" departPos="random" type="truck_truck"/>
    <trip id="truck149" depart="2614.00" from="480079864" to="-150837427#2" departLane="best" departSpeed="max" departPos="random" type="truck_truck"/>
    <trip id="truck150" depart="2639.00" from="-150837482#0" to="70193383#0" departLane="best" departSpeed="max" departPos="random" type="truck_truck"/>
    <trip id="truck151" depart="2645.00" from="-331243177" to="150837478#11" departLane="best" departSpeed="max" departPos="random" type="truck_truck"/>
    <trip id="truck152" depart="2673.00" from="479690294#1" to="196125603" departLane="best" departSpeed="max" departPos="random" type="truck_truck"/>
    <trip id="truck153" depart="2677.00" from="150812841#2" to="331243177" departLane="best" departSpeed="max" departPos="random" type="truck_truck"/>
    <trip id="truck154" depart="2700.00" from="-150837200#0" to="479690299" departLane="best" departSpeed="max" departPos="random" type="truck_truck"/>
    <trip id="truck155" depart="2717.00" from="150837246" to="150837147#0" departLane="best" departSpeed="max" departPos="random" type="truck_truck"/>
    <trip id="truck156" depart="2718.00" from="-150837478#6" to="-150837407#2" departLane="best" departSpeed="max" departPos="random" type="truck_truck"/>
    <trip id="truck157" depart="2736.00" from="257846693#4" to="70193392#2" departLane="best" departSpeed="max" departPos="random" type="truck_truck"/>
    <trip id="truck158" depart="2740.00" from="150837077#5" to="479690025#1" departLane="best" departSpeed="max" departPos="random" type="truck_truck"/>
    <trip id="truck159" depart="2758.00" from="-150921480#1" to="257571793#0" departLane="best" departSpeed="max" departPos="random" type="truck_truck"/>
    <trip id="truck160" depart="2770.00" from="-479690293#1" to="e_t" departLane="best" departSpeed="max" departPos="random" type="truck_truck"/>
    <trip id="truck161" depart="2790.00" from="150837200#0" to="-150921818#1" departLane="best" departSpeed="max" departPos="random" type="truck_truck"/>
    <trip id="truck162" depart="2814.00" from="70193392#6" to="-259055473#3" departLane="best" departSpeed="max" departPos="random" type="truck_truck"/>
    <trip id="truck163" depart="2815.00" from="-150837482#3" to="-150837314" departLane="best" departSpeed="max" departPos="random" type="truck_truck"/>
    <trip id="truck164" depart="2829.00" from="150921480#1" to="70193383#0" departLane="best" departSpeed="max" departPos="random" type="truck_truck"/>
    <trip id="truck165" depart="2852.00" from="-150837077#2" to="150837499#8" departLane="best" departSpeed="max" departPos="random" type="truck_truck"/>
    <trip id="truck166" depart="2861.00" from="-150921753#0" to="-150921687#1" departLane="best" departSpeed="max" departPos="random" type="truck_truck"/>
    <trip id="truck167" depart="2869.00" from="150837478#11" to="-150921720#0" departLane="best" departSpeed="max" departPos="random" type="truck_truck"/>
    <trip id="truck168" depart="2894.00" from="-150837479#2" to="479688999#1" departLane="best" departSpeed="max" departPos="random" type="truck_truck"/>
    <trip id="truck169" depart="2898.00" from="150837478#0" to="-150837523#3" departLane="best" departSpeed="max" departPos="random" type="truck_truck"/>
    <trip id="truck170" depart="2935.00" from="-479688691#2" to="-690332512#7" departLane="best" departSpeed="max" departPos="random" type="truck_truck"/>
    <trip id="truck171" depart="2944.00" from="150837499#8" to="150837195#1" departLane="best" departSpeed="max" departPos="random" type="truck_truck"/>
    <trip id="truck172" depart="2978.00" from="150837246" to="-150837268#0" departLane="best" departSpeed="max" departPos="random" type="truck_truck"/>
    <trip id="truck173" depart="2997.00" from="150837479#3" to="150837528#2" departLane="best" departSpeed="max" departPos="random" type="truck_truck"/>
    <trip id="truck174" depart="3035.00" from="-378534333#1" to="-150837129#0" departLane="best" departSpeed="max" departPos="random" type="truck_truck"/>
    <trip id="truck175" depart="3040.00" from="-479780488#3" to="150837198#1" departLane="best" departSpeed="max" departPos="random" type="truck_truck"/>
    <trip id="truck176" depart="3043.00" from="-193638676#1" to="-150837268#6" departLane="best" departSpeed="max" departPos="random" type="truck_truck"/>
    <trip id="truck177" depart="3044.00" from="-150837268#2" to="-150921687#0" departLane="best" departSpeed="max" departPos="random" type="truck_truck"/>
    <trip id="truck178" depart="3078.00" from="-690332521#0" to="150812864#9" departLane="best" departSpeed="max" departPos="random" type="truck_truck"/>
    <trip id="truck179" depart="3089.00" from="150837499#5" to="941745039#8" departLane="best" departSpeed="max" departPos="random" type="truck_truck"/>
    <trip id="truck180" depart="3118.00" from="-150837497#0" to="150837523#3" departLane="best" departSpeed="max" departPos="random" type="truck_truck"/>
    <trip id="truck181" depart="3127.00" from="-150921687#1" to="w_t" departLane="best" departSpeed="max" departPos="random" type="truck_truck"/>
    <trip id="truck182" depart="3147.00" from="-150837478#2" to="479688691#1" departLane="best" departSpeed="max" departPos="random" type="truck_truck"/>
    <trip id="truck183" depart="3161.00" from="150837276#2" to="-150837276#3" departLane="best" departSpeed="max" departPos="random" type="truck_truck"/>
    <trip id="truck184" depart="3250.00" from="-150837246" to="-193107843" departLane="best" departSpeed="max" departPos="random" type="truck_truck"/>
    <trip id="truck185" depart="3272.00" from="70193388#4" to="625060171" departLane="best" departSpeed="max" departPos="random" type="truck_truck"/>
    <trip id="truck186" depart="3286.00" from="-150837268#1" to="150837199#1" departLane="best" departSpeed="max" departPos="random" type="truck_truck"/>
    <trip id="truck187" depart="3320.00" from="-150837246" to="-150837427#0" departLane="best" departSpeed="max" departPos="random" type="truck_truck"/>
    <trip id="truck188" depart="3328.00" from="-653736385#1" to="70193392#6" departLane="best" departSpeed="max" departPos="random" type="truck_truck"/>
    <trip id="truck189" depart="3329.00" from="-479688692#1" to="70193383#3" departLane="best" departSpeed="max" departPos="random" type="truck_truck"/>
    <trip id="truck190" depart="3340.00" from="150837129#0" to="-513603326#0" departLane="best" departSpeed="max" departPos="random" type="truck_truck"/>