<additional>

    <vType id="passenger" vClass="passenger" color='249,249,250' maxSpeed="27" />

</additional>