<?xml version="1.0" encoding="UTF-8"?>

<!-- generated on 2024-04-02 13:51:51.855996 by randomTrips.py v1_19_0+0000-baa66a0f364
<configuration>
    <net-file value="osm.net.xml"/>
    <additional-files value="osm.add.xml"/>
    <output-trip-file value="osm.emergency.trips.xml"/>
    <prefix value="emer_"/>
    <trip-attributes value="guiShape=&quot;emergency&quot; departLane=&quot;best&quot; departSpeed=&quot;max&quot; departPos=&quot;random&quot;"/>
    <vehicle-class value="emergency"/>
    <end value="40000.0"/>
    <period value="100.0"/>
    <binomial value="50"/>
</configuration>
-->

<routes xmlns:xsi="http://www.w3.org/2001/XMLSchema-instance" xsi:noNamespaceSchemaLocation="http://sumo.dlr.de/xsd/routes_file.xsd">
    <vType id="emer__emergency" vClass="emergency" guiShape="emergency"/>
    <trip id="emer_0" depart="70.00" from="-150837268#2" to="150837433#2" departLane="best" departSpeed="max" departPos="random" type="emer__emergency"/>
    <trip id="emer_1" depart="86.00" from="479688953#1" to="479690293#1" departLane="best" departSpeed="max" departPos="random" type="emer__emergency"/>
    <trip id="emer_2" depart="104.00" from="-150837433#1" to="-150837443" departLane="best" departSpeed="max" departPos="random" type="emer__emergency"/>
    <trip id="emer_3" depart="166.00" from="-193161031" to="70193388#5" departLane="best" departSpeed="max" departPos="random" type="emer__emergency"/>
    <trip id="emer_4" depart="196.00" from="150837433#2" to="-150837379#1" departLane="best" departSpeed="max" departPos="random" type="emer__emergency"/>
    <trip id="emer_5" depart="261.00" from="-941459814#1" to="150921818#1" departLane="best" departSpeed="max" departPos="random" type="emer__emergency"/>
    <trip id="emer_6" depart="289.00" from="150921480#1" to="70193383#0" departLane="best" departSpeed="max" departPos="random" type="emer__emergency"/>
    <trip id="emer_7" depart="421.00" from="-150921818#0" to="-70193392#0" departLane="best" departSpeed="max" departPos="random" type="emer__emergency"/>
    <trip id="emer_8" depart="800.00" from="150837129#0" to="150837222" departLane="best" departSpeed="max" departPos="random" type="emer__emergency"/>
    <trip id="emer_9" depart="848.00" from="-259055473#2" to="-150837482#7" departLane="best" departSpeed="max" departPos="random" type="emer__emergency"/>
    <trip id="emer_10" depart="957.00" from="941715210#5" to="-150837523#7" departLane="best" departSpeed="max" departPos="random" type="emer__emergency"/>
    <trip id="emer_11" depart="1065.00" from="-150813160#0" to="602111793" departLane="best" departSpeed="max" departPos="random" type="emer__emergency"/>
    <trip id="emer_12" depart="1098.00" from="193638676#0" to="673765757#9" departLane="best" departSpeed="max" departPos="random" type="emer__emergency"/>
    <trip id="emer_13" depart="1168.00" from="-479780488#9" to="150837295#0" departLane="best" departSpeed="max" departPos="random" type="emer__emergency"/>
    <trip id="emer_14" depart="1173.00" from="150837238#1" to="150837195#0" departLane="best" departSpeed="max" departPos="random" type="emer__emergency"/>
    <trip id="emer_15" depart="1360.00" from="941745039#1" to="-70193383#3" departLane="best" departSpeed="max" departPos="random" type="emer__emergency"/>
    <trip id="emer_16" depart="1401.00" from="-479780488#1" to="193107812#2" departLane="best" departSpeed="max" departPos="random" type="emer__emergency"/>
    <trip id="emer_17" depart="1421.00" from="-150837077#7" to="-150837199#0" departLane="best" departSpeed="max" departPos="random" type="emer__emergency"/>
    <trip id="emer_18" depart="1559.00" from="-150837482#5" to="150837478#7" departLane="best" departSpeed="max" departPos="random" type="emer__emergency"/>
    <trip id="emer_19" depart="1592.00" from="150837193#0" to="-150837442#1" departLane="best" departSpeed="max" departPos="random" type="emer__emergency"/>
    <trip id="emer_20" depart="1597.00" from="150921629#0" to="-70193392#6" departLane="best" departSpeed="max" departPos="random" type="emer__emergency"/>
    <trip id="emer_21" depart="1790.00" from="150837453#0" to="150837499#8" departLane="best" departSpeed="max" departPos="random" type="emer__emergency"/>
    <trip id="emer_22" depart="1799.00" from="-479688691#1" to="479690281#2" departLane="best" departSpeed="max" departPos="random" type="emer__emergency"/>
    <trip id="emer_23" depart="1815.00" from="-257571789#0" to="-690332512#1" departLane="best" departSpeed="max" departPos="random" type="emer__emergency"/>
    <trip id="emer_24" depart="2143.00" from="150921822#0" to="479690290#0" departLane="best" departSpeed="max" departPos="random" type="emer__emergency"/>
    <trip id="emer_25" depart="2187.00" from="480188364#1" to="-150921480#1" departLane="best" departSpeed="max" departPos="random" type="emer__emergency"/>
    <trip id="emer_26" depart="2696.00" from="-150837433#0" to="150921753#0" departLane="best" departSpeed="max" departPos="random" type="emer__emergency"/>
    <trip id="emer_27" depart="2761.00" from="70193383#4" to="150837254#1" departLane="best" departSpeed="max" departPos="random" type="emer__emergency"/>
    <trip id="emer_28" depart="2796.00" from="150837389#0" to="479688953#1" departLane="best" departSpeed="max" departPos="random" type="emer__emergency"/>
    <trip id="emer_29" depart="2930.00" from="-479688692#0" to="-150837482#5" departLane="best" departSpeed="max" departPos="random" type="emer__emergency"/>
    <trip id="emer_30" depart="3012.00" from="150837453#0" to="-150837442#1" departLane="best" departSpeed="max" departPos="random" type="emer__emergency"/>
    <trip id="emer_31" depart="3076.00" from="70193383#3" to="-656052090" departLane="best" departSpeed="max" departPos="random" type="emer__emergency"/>
    <trip id="emer_32" depart="3518.00" from="150921687#0" to="150921661#0" departLane="best" departSpeed="max" departPos="random" type="emer__emergency"/>
    <trip id="emer_33" depart="3763.00" from="-259055473#3" to="-150837147#0" departLane="best" departSpeed="max" departPos="random" type="emer__emergency"/>
    <trip id="emer_34" depart="3832.00" from="150837129#0" to="150837499#3" departLane="best" departSpeed="max" departPos="random" type="emer__emergency"/>
    <trip id="emer_35" depart="3868.00" from="-70193388#2" to="E4" departLane="best" departSpeed="max" departPos="random" type="emer__emergency"/>
    <trip id="emer_36" depart="4033.00" from="-70193392#1" to="-150837268#3" departLane="best" departSpeed="max" departPos="random" type="emer__emergency"/>
    <trip id="emer_37" depart="4055.00" from="673765757#6" to="480188362#1" departLane="best" departSpeed="max" departPos="random" type="emer__emergency"/>
    <trip id="emer_38" depart="4232.00" from="150921822#3" to="193107835#0" departLane="best" departSpeed="max" departPos="random" type="emer__emergency"/>
    <trip id="emer_39" depart="4323.00" from="-150837528#1" to="-150837200#0" departLane="best" departSpeed="max" departPos="random" type="emer__emergency"/>
    <trip id="emer_40" depart="4372.00" from="-690332521#0" to="196125603" departLane="best" departSpeed="max" departPos="random" type="emer__emergency"/>
    <trip id="emer_41" depart="4381.00" from="-150837191#0" to="-70193391#2" departLane="best" departSpeed="max" departPos="random" type="emer__emergency"/>
    <trip id="emer_42" depart="4427.00" from="150812864#2" to="-257571789#0" departLane="best" departSpeed="max" departPos="random" type="emer__emergency"/>
    <trip id="emer_43" depart="4981.00" from="150837478#8" to="-150812841#2" departLane="best" departSpeed="max" departPos="random" type="emer__emergency"/>
    <trip id="emer_44" depart="5000.00" from="150837528#4" to="257571793#0" departLane="best" departSpeed="max" departPos="random" type="emer__emergency"/>
    <trip id="emer_45" depart="5212.00" from="-150837203#1" to="-150921687#3" departLane="best" departSpeed="max" departPos="random" type="emer__emergency"/>
    <trip id="emer_46" depart="5267.00" from="257846693#4" to="-70193383#0" departLane="best" departSpeed="max" departPos="random" type="emer__emergency"/>
    <trip id="emer_47" depart="5274.00" from="-193107812#2" to="-150921477#0" departLane="best" departSpeed="max" departPos="random" type="emer__emergency"/>
    <trip id="emer_48" depart="5472.00" from="-150837322" to="941715210#0" departLane="best" departSpeed="max" departPos="random" type="emer__emergency"/>
    <trip id="emer_49" depart="5526.00" from="150837478#6" to="150837478#2" departLane="best" departSpeed="max" departPos="random" type="emer__emergency"/>
    <trip id="emer_50" depart="5526.00" from="479690281#0" to="-150837479#2" departLane="best" departSpeed="max" departPos="random" type="emer__emergency"/>
    <trip id="emer_51" depart="5545.00" from="150837442#1" to="150812782" departLane="best" departSpeed="max" departPos="random" type="emer__emergency"/>
    <trip id="emer_52" depart="5595.00" from="-653736385#1" to="150837268#8" departLane="best" departSpeed="max" departPos="random" type="emer__emergency"/>
    <trip id="emer_53" depart="5829.00" from="150837276#0" to="-150837523#2" departLane="best" departSpeed="max" departPos="random" type="emer__emergency"/>
    <trip id="emer_54" depart="5843.00" from="-150837445" to="150921818#0" departLane="best" departSpeed="max" departPos="random" type="emer__emergency"/>
    <trip id="emer_55" depart="5924.00" from="-150837528#3" to="150812864#6" departLane="best" departSpeed="max" departPos="random" type="emer__emergency"/>
    <trip id="emer_56" depart="5943.00" from="-150813160#2" to="70192998#1" departLane="best" departSpeed="max" departPos="random" type="emer__emergency"/>
    <trip id="emer_57" depart="6022.00" from="-150837154" to="150837191#0" departLane="best" departSpeed="max" departPos="random" type="emer__emergency"/>
    <trip id="emer_58" depart="6053.00" from="150837407#0" to="150837442#1" departLane="best" departSpeed="max" departPos="random" type="emer__emergency"/>
    <trip id="emer_59" depart="6090.00" from="-656052090" to="150921818#2" departLane="best" departSpeed="max" departPos="random" type="emer__emergency"/>
    <trip id="emer_60" depart="6115.00" from="-150921661#0" to="-193107817" departLane="best" departSpeed="max" departPos="random" type="emer__emergency"/>
    <trip id="emer_61" depart="6251.00" from="150837479#2" to="150921477#1" departLane="best" departSpeed="max" departPos="random" type="emer__emergency"/>
    <trip id="emer_62" depart="6400.00" from="196125594" to="-150812841#1" departLane="best" departSpeed="max" departPos="random" type="emer__emergency"/>
    <trip id="emer_63" depart="6512.00" from="150837482#5" to="-150837528#4" departLane="best" departSpeed="max" departPos="random" type="emer__emergency"/>
    <trip id="emer_64" depart="6545.00" from="-150921721#1" to="150837303#0" departLane="best" departSpeed="max" departPos="random" type="emer__emergency"/>
    <trip id="emer_65" depart="7002.00" from="479690293#5" to="-150837442#1" departLane="best" departSpeed="max" departPos="random" type="emer__emergency"/>
    <trip id="emer_66" depart="7082.00" from="-257846693#1" to="150837499#1" departLane="best" departSpeed="max" departPos="random" type="emer__emergency"/>
    <trip id="emer_67" depart="7137.00" from="-150837268#6" to="150837276#1" departLane="best" departSpeed="max" departPos="random" type="emer__emergency"/>
    <trip id="emer_68" depart="7202.00" from="-150837478#10" to="-150837129#0" departLane="best" departSpeed="max" departPos="random" type="emer__emergency"/>
    <trip id="emer_69" depart="7236.00" from="-479688999#1" to="-70193388#2" departLane="best" departSpeed="max" departPos="random" type="emer__emergency"/>
    <trip id="emer_70" depart="7432.00" from="150837198#2" to="-150921629#1" departLane="best" departSpeed="max" departPos="random" type="emer__emergency"/>
    <trip id="emer_71" depart="7741.00" from="-601770472#1" to="t_s" departLane="best" departSpeed="max" departPos="random" type="emer__emergency"/>
    <trip id="emer_72" depart="7741.00" from="-941715210#2" to="150837528#2" departLane="best" departSpeed="max" departPos="random" type="emer__emergency"/>
    <trip id="emer_73" depart="7874.00" from="-479690293#1" to="-479688999#1" departLane="best" departSpeed="max" departPos="random" type="emer__emergency"/>
    <trip id="emer_74" depart="7907.00" from="150921661#0" to="-150837499#1" departLane="best" departSpeed="max" departPos="random" type="emer__emergency"/>
    <trip id="emer_75" depart="8187.00" from="150837268#2" to="-150921698" departLane="best" departSpeed="max" departPos="random" type="emer__emergency"/>
    <trip id="emer_76" depart="8332.00" from="150837108#2" to="150837482#0" departLane="best" departSpeed="max" departPos="random" type="emer__emergency"/>
    <trip id="emer_77" depart="8431.00" from="-150921787#1" to="150921818#1" departLane="best" departSpeed="max" departPos="random" type="emer__emergency"/>
    <trip id="emer_78" depart="8581.00" from="-479780488#1" to="-150837427#0" departLane="best" departSpeed="max" departPos="random" type="emer__emergency"/>
    <trip id="emer_79" depart="8583.00" from="-257846693#1" to="150837349" departLane="best" departSpeed="max" departPos="random" type="emer__emergency"/>
    <trip id="emer_80" depart="8585.00" from="150837479#4" to="941745039#2" departLane="best" departSpeed="max" departPos="random" type="emer__emergency"/>
    <trip id="emer_81" depart="8760.00" from="479690302#1" to="257846693#3" departLane="best" departSpeed="max" departPos="random" type="emer__emergency"/>
    <trip id="emer_82" depart="8925.00" from="479780488#2" to="150837238#5" departLane="best" departSpeed="max" departPos="random" type="emer__emergency"/>
    <trip id="emer_83" depart="9060.00" from="150837379#2" to="-150837268#6" departLane="best" departSpeed="max" departPos="random" type="emer__emergency"/>
    <trip id="emer_84" depart="9210.00" from="257846693#0" to="-150921687#2" departLane="best" departSpeed="max" departPos="random" type="emer__emergency"/>
    <trip id="emer_85" depart="9344.00" from="193107835#1" to="-150837318#1" departLane="best" departSpeed="max" departPos="random" type="emer__emergency"/>
    <trip id="emer_86" depart="9496.00" from="-150837268#6" to="-513603326#0" departLane="best" departSpeed="max" departPos="random" type="emer__emergency"/>
    <trip id="emer_87" depart="9506.00" from="-150921721#1" to="-941715210#4" departLane="best" departSpeed="max" departPos="random" type="emer__emergency"/>
    <trip id="emer_88" depart="9559.00" from="150837471#1" to="-513603326#0" departLane="best" departSpeed="max" departPos="random" type="emer__emergency"/>
    <trip id="emer_89" depart="9801.00" from="150921703" to="150837165" departLane="best" departSpeed="max" departPos="random" type="emer__emergency"/>
    <trip id="emer_90" depart="9955.00" from="941715210#4" to="150837268#7" departLane="best" departSpeed="max" departPos="random" type="emer__emergency"/>
    <trip id="emer_91" depart="10051.00" from="-150837479#0" to="150837129#1" departLane="best" departSpeed="max" departPos="random" type="emer__emergency"/>
    <trip id="emer_92" depart="10127.00" from="150812864#4" to="-150921721#0" departLane="best" departSpeed="max" departPos="random" type="emer__emergency"/>
    <trip id="emer_93" depart="10134.00" from="150837191#0" to="-150837478#6" departLane="best" departSpeed="max" departPos="random" type="emer__emergency"/>
    <trip id="emer_94" depart="10194.00" from="150837465#1" to="-257846693#1" departLane="best" departSpeed="max" departPos="random" type="emer__emergency"/>
    <trip id="emer_95" depart="10229.00" from="-257571789#0" to="150921629#1" departLane="best" departSpeed="max" departPos="random" type="emer__emergency"/>
    <trip id="emer_96" depart="10252.00" from="-150837191#0" to="150837407#1" departLane="best" departSpeed="max" departPos="random" type="emer__emergency"/>
    <trip id="emer_97" depart="10354.00" from="150837077#3" to="479690292#1" departLane="best" departSpeed="max" departPos="random" type="emer__emergency"/>
    <trip id="emer_98" depart="10385.00" from="-150813160#1" to="479687736#0" departLane="best" departSpeed="max" departPos="random" type="emer__emergency"/>
    <trip id="emer_99" depart="10490.00" from="150837276#2" to="150837268#8" departLane="best" departSpeed="max" departPos="random" type="emer__emergency"/>
    <trip id="emer_100" depart="10623.00" from="-150837318#2" to="-150837254#0" departLane="best" departSpeed="max" departPos="random" type="emer__emergency"/>
    <trip id="emer_101" depart="10892.00" from="-150812864#6" to="-150921480#0" departLane="best" departSpeed="max" departPos="random" type="emer__emergency"/>
    <trip id="emer_102" depart="11134.00" from="-150837077#7" to="193161028#1" departLane="best" departSpeed="max" departPos="random" type="emer__emergency"/>
    <trip id="emer_103" depart="11219.00" from="70193392#0" to="-193107835#0" departLane="best" departSpeed="max" departPos="random" type="emer__emergency"/>
    <trip id="emer_104" depart="11375.00" from="150921818#3" to="-150921822#0" departLane="best" departSpeed="max" departPos="random" type="emer__emergency"/>
    <trip id="emer_105" depart="11417.00" from="70193383#4" to="-150837268#8" departLane="best" departSpeed="max" departPos="random" type="emer__emergency"/>
    <trip id="emer_106" depart="11685.00" from="-941459814#0" to="150837427#0" departLane="best" departSpeed="max" departPos="random" type="emer__emergency"/>
    <trip id="emer_107" depart="11704.00" from="-150921818#3" to="150921513" departLane="best" departSpeed="max" departPos="random" type="emer__emergency"/>
    <trip id="emer_108" depart="11745.00" from="257846693#4" to="150837528#1" departLane="best" departSpeed="max" departPos="random" type="emer__emergency"/>
    <trip id="emer_109" depart="11798.00" from="-479780488#7" to="150812841#1" departLane="best" departSpeed="max" departPos="random" type="emer__emergency"/>
    <trip id="emer_110" depart="11962.00" from="-150837478#6" to="150837199#1" departLane="best" departSpeed="max" departPos="random" type="emer__emergency"/>
    <trip id="emer_111" depart="12217.00" from="-690332512#5" to="-479688953#1" departLane="best" departSpeed="max" departPos="random" type="emer__emergency"/>
    <trip id="emer_112" depart="12235.00" from="-150921787#3" to="-479690293#2" departLane="best" departSpeed="max" departPos="random" type="emer__emergency"/>
    <trip id="emer_113" depart="12310.00" from="378534333#0" to="70193392#1" departLane="best" departSpeed="max" departPos="random" type="emer__emergency"/>
    <trip id="emer_114" depart="12393.00" from="150837077#0" to="941715210#2" departLane="best" departSpeed="max" departPos="random" type="emer__emergency"/>
    <trip id="emer_115" depart="12394.00" from="193107842" to="-150921708#2" departLane="best" departSpeed="max" departPos="random" type="emer__emergency"/>
    <trip id="emer_116" depart="12408.00" from="-196125606#0" to="-150921818#2" departLane="best" departSpeed="max" departPos="random" type="emer__emergency"/>
    <trip id="emer_117" depart="12478.00" from="-150837499#5" to="150837154" departLane="best" departSpeed="max" departPos="random" type="emer__emergency"/>
    <trip id="emer_118" depart="12560.00" from="150837427#2" to="-193107817" departLane="best" departSpeed="max" departPos="random" type="emer__emergency"/>
    <trip id="emer_119" depart="12582.00" from="150812782" to="-150837528#0" departLane="best" departSpeed="max" departPos="random" type="emer__emergency"/>
    <trip id="emer_120" depart="12915.00" from="-479688692#1" to="-601770472#3" departLane="best" departSpeed="max" departPos="random" type="emer__emergency"/>
    <trip id="emer_121" depart="12918.00" from="673765757#3" to="150837191#1" departLane="best" departSpeed="max" departPos="random" type="emer__emergency"/>
    <trip id="emer_122" depart="13287.00" from="-150921513" to="-690332512#1" departLane="best" departSpeed="max" departPos="random" type="emer__emergency"/>
    <trip id="emer_123" depart="13300.00" from="-672252725" to="-70193383#3" departLane="best" departSpeed="max" departPos="random" type="emer__emergency"/>
    <trip id="emer_124" depart="13328.00" from="150837499#1" to="150837465#1" departLane="best" departSpeed="max" departPos="random" type="emer__emergency"/>
    <trip id="emer_125" depart="13394.00" from="150837238#4" to="-150813160#0" departLane="best" departSpeed="max" departPos="random" type="emer__emergency"/>
    <trip id="emer_126" depart="13452.00" from="150837433#0" to="479780488#7" departLane="best" departSpeed="max" departPos="random" type="emer__emergency"/>
    <trip id="emer_127" depart="13590.00" from="-150837220" to="193638676#1" departLane="best" departSpeed="max" departPos="random" type="emer__emergency"/>
    <trip id="emer_128" depart="13628.00" from="150837220" to="479780488#7" departLane="best" departSpeed="max" departPos="random" type="emer__emergency"/>
    <trip id="emer_129" depart="13959.00" from="150921687#1" to="-479780488#3" departLane="best" departSpeed="max" departPos="random" type="emer__emergency"/>
    <trip id="emer_130" depart="13990.00" from="-193638676#0" to="-150921818#0" departLane="best" departSpeed="max" departPos="random" type="emer__emergency"/>
    <trip id="emer_131" depart="14105.00" from="479688999#2" to="150837482#0" departLane="best" departSpeed="max" departPos="random" type="emer__emergency"/>
    <trip id="emer_132" depart="14140.00" from="-941715210#0" to="-150837427#3" departLane="best" departSpeed="max" departPos="random" type="emer__emergency"/>
    <trip id="emer_133" depart="14172.00" from="-150837442#2" to="-150921818#2" departLane="best" departSpeed="max" departPos="random" type="emer__emergency"/>
    <trip id="emer_134" depart="14234.00" from="-150921753#0" to="-150921708#1" departLane="best" departSpeed="max" departPos="random" type="emer__emergency"/>
    <trip id="emer_135" depart="14382.00" from="193638674" to="150837482#1" departLane="best" departSpeed="max" departPos="random" type="emer__emergency"/>
    <trip id="emer_136" depart="14462.00" from="150921698" to="-150921513" departLane="best" departSpeed="max" departPos="random" type="emer__emergency"/>
    <trip id="emer_137" depart="14564.00" from="941745039#4" to="70193392#2" departLane="best" departSpeed="max" departPos="random" type="emer__emergency"/>
    <trip id="emer_138" depart="14891.00" from="-196125606#1" to="150921661#0" departLane="best" departSpeed="max" departPos="random" type="emer__emergency"/>
    <trip id="emer_139" depart="14992.00" from="601770472#1" to="150837077#3" departLane="best" departSpeed="max" departPos="random" type="emer__emergency"/>
    <trip id="emer_140" depart="15085.00" from="70193388#5" to="150921753#1" departLane="best" departSpeed="max" departPos="random" type="emer__emergency"/>
    <trip id="emer_141" depart="15156.00" from="150812841#2" to="-150837478#3" departLane="best" departSpeed="max" departPos="random" type="emer__emergency"/>
    <trip id="emer_142" depart="15224.00" from="-941715210#1" to="150837523#2" departLane="best" departSpeed="max" departPos="random" type="emer__emergency"/>
    <trip id="emer_143" depart="15224.00" from="150837482#2" to="-150837478#13" departLane="best" departSpeed="max" departPos="random" type="emer__emergency"/>
    <trip id="emer_144" depart="15394.00" from="-150837478#10" to="t_w" departLane="best" departSpeed="max" departPos="random" type="emer__emergency"/>
    <trip id="emer_145" depart="15429.00" from="479687736#2" to="-193107812#2" departLane="best" departSpeed="max" departPos="random" type="emer__emergency"/>
    <trip id="emer_146" depart="15850.00" from="257846693#3" to="-150813160#0" departLane="best" departSpeed="max" departPos="random" type="emer__emergency"/>
    <trip id="emer_147" depart="15857.00" from="150837347#0" to="-150837238#2" departLane="best" departSpeed="max" departPos="random" type="emer__emergency"/>
    <trip id="emer_148" depart="15896.00" from="150837478#0" to="-193107835#0" departLane="best" departSpeed="max" departPos="random" type="emer__emergency"/>
    <trip id="emer_149" depart="15957.00" from="150837528#0" to="-150837268#8" departLane="best" departSpeed="max" departPos="random" type="emer__emergency"/>
    <trip id="emer_150" depart="16030.00" from="666277190" to="193107842" departLane="best" departSpeed="max" departPos="random" type="emer__emergency"/>
    <trip id="emer_151" depart="16048.00" from="150837479#0" to="-150921661#0" departLane="best" departSpeed="max" departPos="random" type="emer__emergency"/>
    <trip id="emer_152" depart="16093.00" from="-150921756#0" to="941715210#1" departLane="best" departSpeed="max" departPos="random" type="emer__emergency"/>
    <trip id="emer_153" depart="16181.00" from="150837453#1" to="479687736#0" departLane="best" departSpeed="max" departPos="random" type="emer__emergency"/>
    <trip id="emer_154" depart="16201.00" from="-150837499#4" to="479690289#3" departLane="best" departSpeed="max" departPos="random" type="emer__emergency"/>
    <trip id="emer_155" depart="16288.00" from="150837465#1" to="70193392#3" departLane="best" departSpeed="max" departPos="random" type="emer__emergency"/>
    <trip id="emer_156" depart="16466.00" from="70193391#0" to="150837396#1" departLane="best" departSpeed="max" departPos="random" type="emer__emergency"/>
    <trip id="emer_157" depart="16670.00" from="150837499#5" to="-70193391#1" departLane="best" departSpeed="max" departPos="random" type="emer__emergency"/>
    <trip id="emer_158" depart="16680.00" from="150837147#1" to="-150837407#2" departLane="best" departSpeed="max" departPos="random" type="emer__emergency"/>
    <trip id="emer_159" depart="16793.00" from="150921721#0" to="-690332512#2" departLane="best" departSpeed="max" departPos="random" type="emer__emergency"/>
    <trip id="emer_160" depart="16799.00" from="-479688999#1" to="150837238#5" departLane="best" departSpeed="max" departPos="random" type="emer__emergency"/>
    <trip id="emer_161" depart="16819.00" from="-150837108#2" to="-479690293#3" departLane="best" departSpeed="max" departPos="random" type="emer__emergency"/>
    <trip id="emer_162" depart="17219.00" from="259055473#0" to="-378534333#1" departLane="best" departSpeed="max" departPos="random" type="emer__emergency"/>
    <trip id="emer_163" depart="17246.00" from="150837407#1" to="193638676#2" departLane="best" departSpeed="max" departPos="random" type="emer__emergency"/>
    <trip id="emer_164" depart="17318.00" from="-150921687#3" to="150837318#1" departLane="best" departSpeed="max" departPos="random" type="emer__emergency"/>
    <trip id="emer_165" depart="17434.00" from="-150921480#0" to="-150921822#2" departLane="best" departSpeed="max" departPos="random" type="emer__emergency"/>
    <trip id="emer_166" depart="17528.00" from="-150837353" to="150837433#0" departLane="best" departSpeed="max" departPos="random" type="emer__emergency"/>
    <trip id="emer_167" depart="17861.00" from="-150837268#2" to="150837453#2" departLane="best" departSpeed="max" departPos="random" type="emer__emergency"/>
    <trip id="emer_168" depart="17881.00" from="150837523#3" to="-150812864#6" departLane="best" departSpeed="max" departPos="random" type="emer__emergency"/>
    <trip id="emer_169" depart="17945.00" from="479690289#10" to="479687736#2" departLane="best" departSpeed="max" departPos="random" type="emer__emergency"/>
    <trip id="emer_170" depart="18108.00" from="-150921629#1" to="150837499#7" departLane="best" departSpeed="max" departPos="random" type="emer__emergency"/>
    <trip id="emer_171" depart="18409.00" from="479687736#2" to="70193388#2" departLane="best" departSpeed="max" departPos="random" type="emer__emergency"/>
    <trip id="emer_172" depart="18557.00" from="e_t" to="479690289#3" departLane="best" departSpeed="max" departPos="random" type="emer__emergency"/>
    <trip id="emer_173" depart="18657.00" from="656052107" to="480188362#2" departLane="best" departSpeed="max" departPos="random" type="emer__emergency"/>
    <trip id="emer_174" depart="18829.00" from="150837528#6" to="-150837478#6" departLane="best" departSpeed="max" departPos="random" type="emer__emergency"/>
    <trip id="emer_175" depart="18848.00" from="-70193391#2" to="150837077#0" departLane="best" departSpeed="max" departPos="random" type="emer__emergency"/>
    <trip id="emer_176" depart="18876.00" from="-150837523#1" to="150837314" departLane="best" departSpeed="max" departPos="random" type="emer__emergency"/>
    <trip id="emer_177" depart="19004.00" from="-150812864#11" to="150837347#0" departLane="best" departSpeed="max" departPos="random" type="emer__emergency"/>
    <trip id="emer_178" depart="19207.00" from="-150837140" to="-150837499#8" departLane="best" departSpeed="max" departPos="random" type="emer__emergency"/>
    <trip id="emer_179" depart="19312.00" from="-150921756#1" to="-150837379#0" departLane="best" departSpeed="max" departPos="random" type="emer__emergency"/>
    <trip id="emer_180" depart="19412.00" from="673765757#3" to="479780488#7" departLane="best" departSpeed="max" departPos="random" type="emer__emergency"/>
    <trip id="emer_181" depart="19436.00" from="-150837193#0" to="-70193391#2" departLane="best" departSpeed="max" departPos="random" type="emer__emergency"/>
    <trip id="emer_182" depart="19510.00" from="-150837353" to="-941715210#1" departLane="best" departSpeed="max" departPos="random" type="emer__emergency"/>
    <trip id="emer_183" depart="19694.00" from="-479780489" to="70193392#4" departLane="best" departSpeed="max" departPos="random" type="emer__emergency"/>
    <trip id="emer_184" depart="19841.00" from="-150837482#0" to="-150921480#0" departLane="best" departSpeed="max" departPos="random" type="emer__emergency"/>