<?xml version="1.0" encoding="UTF-8"?>

<!-- generated on 2024-03-05 14:22:28 by Eclipse SUMO netedit Version 1.19.0
<configuration xmlns:xsi="http://www.w3.org/2001/XMLSchema-instance" xsi:noNamespaceSchemaLocation="http://sumo.dlr.de/xsd/neteditConfiguration.xsd">

    <input>
        <sumo-net-file value="E:\Instigo-TS-CTRL\network\osm.net.xml"/>
    </input>

    <output>
        <output-file value="E:\Instigo-TS-CTRL\network\osm.net.xml"/>
        <output.street-names value="true"/>
    </output>

    <processing>
        <geometry.min-radius.fix.railways value="false"/>
        <geometry.max-grade.fix value="false"/>
        <offset.disable-normalization value="true"/>
        <lefthand value="0"/>
    </processing>

    <junctions>
        <no-turnarounds value="true"/>
        <junctions.corner-detail value="5"/>
        <junctions.limit-turn-speed value="5.50"/>
        <rectangular-lane-cut value="0"/>
    </junctions>

    <pedestrian>
        <walkingareas value="0"/>
    </pedestrian>

</configuration>
-->

<net version="1.16" junctionCornerDetail="5" limitTurnSpeed="5.50" xmlns:xsi="http://www.w3.org/2001/XMLSchema-instance" xsi:noNamespaceSchemaLocation="http://sumo.dlr.de/xsd/net_file.xsd">

    <location netOffset="-3248912.24,188204.95" convBoundary="3672.95,0.00,6115.35,3070.06" origBoundary="29.185475,-1.690428,29.240410,-1.662861" projParameter="+proj=merc +a=6378137 +b=6378137 +lat_ts=0.0 +lon_0=0.0 +x_0=0.0 +y_0=0 +k=1.0 +units=m +nadgrids=@null +wktext +no_defs"/>

    <type id="highway.footway" priority="1" numLanes="1" speed="2.78" allow="pedestrian" oneway="1" width="2.00"/>
    <type id="highway.path" priority="1" numLanes="1" speed="5.56" allow="pedestrian bicycle" oneway="0" width="2.00"/>
    <type id="highway.primary" priority="12" numLanes="2" speed="27.78" disallow="tram rail_urban rail rail_electric rail_fast ship" oneway="0"/>
    <type id="highway.primary_link" priority="7" numLanes="1" speed="22.22" disallow="tram rail_urban rail rail_electric rail_fast ship" oneway="0"/>
    <type id="highway.residential" priority="3" numLanes="1" speed="13.89" disallow="tram rail_urban rail rail_electric rail_fast ship" oneway="0"/>
    <type id="highway.secondary" priority="11" numLanes="1" speed="27.78" disallow="tram rail_urban rail rail_electric rail_fast ship" oneway="0"/>
    <type id="highway.service" priority="1" numLanes="1" speed="5.56" allow="pedestrian delivery bicycle" oneway="0"/>
    <type id="highway.tertiary" priority="10" numLanes="1" speed="22.22" disallow="tram rail_urban rail rail_electric rail_fast ship" oneway="0"/>
    <type id="highway.trunk" priority="13" numLanes="2" speed="27.78" disallow="pedestrian bicycle tram rail_urban rail rail_electric rail_fast ship" oneway="0"/>
    <type id="highway.unclassified" priority="4" numLanes="1" speed="13.89" disallow="tram rail_urban rail rail_electric rail_fast ship" oneway="0"/>

    <edge id=":10129831435_0" function="internal">
        <lane id=":10129831435_0_0" index="0" disallow="tram rail_urban rail rail_electric rail_fast ship" speed="3.65" length="4.67" shape="5605.77,224.79 5606.51,223.55 5607.29,223.11 5608.11,223.47 5608.97,224.63"/>
    </edge>
    <edge id=":10861512474_0" function="internal">
        <lane id=":10861512474_0_0" index="0" allow="pedestrian delivery bicycle" speed="3.65" length="4.67" shape="5480.17,837.77 5481.04,838.92 5481.15,839.81 5480.51,840.43 5479.11,840.79"/>
    </edge>
    <edge id=":10993894516_0" function="internal">
        <lane id=":10993894516_0_0" index="0" allow="delivery" speed="5.35" length="5.39" shape="3899.82,1568.04 3898.56,1567.09 3897.34,1566.69 3896.16,1566.84 3895.03,1567.55"/>
    </edge>
    <edge id=":10993894516_1" function="internal">
        <lane id=":10993894516_1_0" index="0" allow="delivery" speed="6.79" length="10.64" shape="3899.82,1568.04 3898.00,1565.71 3897.43,1563.41 3898.12,1561.15 3900.06,1558.92"/>
    </edge>
    <edge id=":10993894516_2" function="internal">
        <lane id=":10993894516_2_0" index="0" allow="pedestrian delivery bicycle" speed="3.65" length="4.67" shape="3899.82,1568.04 3899.51,1566.63 3899.77,1565.78 3900.61,1565.47 3902.03,1565.73"/>
    </edge>
    <edge id=":10993894516_3" function="internal">
        <lane id=":10993894516_3_0" index="0" allow="delivery" speed="4.94" length="5.12" shape="3902.15,1561.34 3901.21,1562.41 3900.88,1563.50 3901.16,1564.61 3902.03,1565.73"/>
    </edge>
    <edge id=":10993894516_4" function="internal">
        <lane id=":10993894516_4_0" index="0" disallow="pedestrian bicycle tram rail_urban rail rail_electric rail_fast ship" speed="27.78" length="9.44" shape="3902.15,1561.34 3895.03,1567.55"/>
    </edge>
    <edge id=":10993894516_5" function="internal">
        <lane id=":10993894516_5_0" index="0" disallow="pedestrian bicycle tram rail_urban rail rail_electric rail_fast ship" speed="27.78" length="9.48" shape="3892.91,1565.15 3900.06,1558.92"/>
    </edge>
    <edge id=":10993894516_6" function="internal">
        <lane id=":10993894516_6_0" index="0" allow="delivery" speed="7.10" length="3.13" shape="3892.91,1565.15 3895.14,1563.72 3895.62,1563.64"/>
    </edge>
    <edge id=":10993894516_7" function="internal">
        <lane id=":10993894516_7_0" index="0" allow="delivery" speed="7.10" length="7.10" shape="3895.62,1563.64 3897.41,1563.34 3899.70,1564.01 3902.03,1565.73"/>
    </edge>
    <edge id=":10993894517_0" function="internal">
        <lane id=":10993894517_0_0" index="0" allow="pedestrian delivery bicycle" speed="3.65" length="4.67" shape="3952.53,1614.06 3952.84,1615.47 3952.58,1616.33 3951.73,1616.63 3950.31,1616.38"/>
    </edge>
    <edge id=":1636857920_0" function="internal">
        <lane id=":1636857920_0_0" index="0" disallow="pedestrian bicycle tram rail_urban rail rail_electric rail_fast ship" speed="3.65" length="4.67" shape="3727.20,1713.34 3725.77,1713.53 3724.95,1713.19 3724.72,1712.33 3725.10,1710.94"/>
    </edge>
    <edge id=":1636858035_0" function="internal">
        <lane id=":1636858035_0_0" index="0" disallow="tram rail_urban rail rail_electric rail_fast ship" speed="10.76" length="4.58" shape="4145.30,1448.96 4144.40,1447.94 4143.73,1447.27 4142.94,1446.78 4141.70,1446.26"/>
    </edge>
    <edge id=":1636858035_1" function="internal">
        <lane id=":1636858035_1_0" index="0" disallow="tram rail_urban rail rail_electric rail_fast ship" speed="3.65" length="1.44" shape="4145.30,1448.96 4145.10,1447.53"/>
    </edge>
    <edge id=":1636858035_4" function="internal">
        <lane id=":1636858035_4_0" index="0" disallow="tram rail_urban rail rail_electric rail_fast ship" speed="3.65" length="3.23" shape="4145.10,1447.53 4145.43,1446.70 4146.29,1446.47 4147.69,1446.83"/>
    </edge>
    <edge id=":1636858035_2" function="internal">
        <lane id=":1636858035_2_0" index="0" disallow="tram rail_urban rail rail_electric rail_fast ship" speed="8.15" length="3.93" shape="4146.12,1443.35 4146.28,1444.49 4146.51,1445.27 4146.94,1445.95 4147.69,1446.83"/>
    </edge>
    <edge id=":1636858035_3" function="internal">
        <lane id=":1636858035_3_0" index="0" disallow="tram rail_urban rail rail_electric rail_fast ship" speed="5.11" length="2.91" shape="4146.12,1443.35 4146.05,1445.31 4145.53,1446.10"/>
    </edge>
    <edge id=":1636858035_5" function="internal">
        <lane id=":1636858035_5_0" index="0" disallow="tram rail_urban rail rail_electric rail_fast ship" speed="5.11" length="4.12" shape="4145.53,1446.10 4145.30,1446.46 4143.84,1446.77 4141.70,1446.26"/>
    </edge>
    <edge id=":1636858041_0" function="internal">
        <lane id=":1636858041_0_0" index="0" disallow="pedestrian bicycle tram rail_urban rail rail_electric rail_fast ship" speed="10.01" length="8.57" shape="4057.01,1432.26 4054.45,1432.02 4052.58,1431.83 4050.90,1432.16 4048.91,1433.52"/>
    </edge>
    <edge id=":1636858041_1" function="internal">
        <lane id=":1636858041_1_0" index="0" disallow="pedestrian bicycle tram rail_urban rail rail_electric rail_fast ship" speed="6.02" length="12.82" shape="4057.01,1432.26 4052.56,1431.72 4050.56,1430.47 4051.01,1428.50 4053.90,1425.81"/>
    </edge>
    <edge id=":1636858041_2" function="internal">
        <lane id=":1636858041_2_0" index="0" disallow="pedestrian bicycle tram rail_urban rail rail_electric rail_fast ship" speed="27.78" length="8.59" shape="4055.81,1428.39 4048.91,1433.52"/>
    </edge>
    <edge id=":1636858041_3" function="internal">
        <lane id=":1636858041_3_0" index="0" disallow="pedestrian bicycle tram rail_urban rail rail_electric rail_fast ship" speed="3.65" length="1.44" shape="4055.81,1428.39 4054.36,1428.45"/>
    </edge>
    <edge id=":1636858041_6" function="internal">
        <lane id=":1636858041_6_0" index="0" disallow="pedestrian bicycle tram rail_urban rail rail_electric rail_fast ship" speed="3.65" length="3.23" shape="4054.36,1428.45 4053.57,1428.05 4053.41,1427.17 4053.90,1425.81"/>
    </edge>
    <edge id=":1636858041_4" function="internal">
        <lane id=":1636858041_4_0" index="0" disallow="pedestrian bicycle tram rail_urban rail rail_electric rail_fast ship" speed="27.78" length="8.87" shape="4046.80,1431.12 4053.90,1425.81"/>
    </edge>
    <edge id=":1636858041_5" function="internal">
        <lane id=":1636858041_5_0" index="0" disallow="pedestrian bicycle tram rail_urban rail rail_electric rail_fast ship" speed="3.65" length="1.44" shape="4046.80,1431.12 4048.23,1430.92"/>
    </edge>
    <edge id=":1636858041_7" function="internal">
        <lane id=":1636858041_7_0" index="0" disallow="pedestrian bicycle tram rail_urban rail rail_electric rail_fast ship" speed="3.65" length="3.23" shape="4048.23,1430.92 4049.06,1431.26 4049.29,1432.13 4048.91,1433.52"/>
    </edge>
    <edge id=":1636858043_0" function="internal">
        <lane id=":1636858043_0_0" index="0" disallow="tram rail_urban rail rail_electric rail_fast ship" speed="7.44" length="10.49" shape="4155.00,1413.51 4151.86,1413.82 4149.48,1414.80 4147.86,1416.43 4147.00,1418.73"/>
    </edge>
    <edge id=":1636858043_1" function="internal">
        <lane id=":1636858043_1_0" index="0" disallow="tram rail_urban rail rail_electric rail_fast ship" speed="3.65" length="4.67" shape="4155.00,1413.51 4153.81,1412.70 4153.41,1411.90 4153.81,1411.10 4155.02,1410.31"/>
    </edge>
    <edge id=":1636858043_2" function="internal">
        <lane id=":1636858043_2_0" index="0" disallow="tram rail_urban rail rail_electric rail_fast ship" speed="5.92" length="9.10" shape="4150.79,1404.39 4150.31,1406.97 4150.85,1408.81 4152.42,1409.93 4155.02,1410.31"/>
    </edge>
    <edge id=":1636858043_3" function="internal">
        <lane id=":1636858043_3_0" index="0" disallow="tram rail_urban rail rail_electric rail_fast ship" speed="13.89" length="14.85" shape="4150.79,1404.39 4149.65,1407.93 4148.63,1411.49 4147.74,1415.08 4147.00,1418.73"/>
    </edge>
    <edge id=":1636858044_0" function="internal">
        <lane id=":1636858044_0_0" index="0" disallow="tram rail_urban rail rail_electric rail_fast ship" speed="6.07" length="8.30" shape="3924.75,1404.06 3922.45,1404.13 3920.74,1403.43 3919.63,1401.96 3919.13,1399.71"/>
    </edge>
    <edge id=":1636858044_1" function="internal">
        <lane id=":1636858044_1_0" index="0" disallow="tram rail_urban rail rail_electric rail_fast ship" speed="3.65" length="4.67" shape="3924.75,1404.06 3923.43,1403.48 3922.90,1402.76 3923.15,1401.91 3924.19,1400.91"/>
    </edge>
    <edge id=":1636858044_2" function="internal">
        <lane id=":1636858044_2_0" index="0" disallow="tram rail_urban rail rail_electric rail_fast ship" speed="3.90" length="2.77" shape="3922.32,1399.46 3922.49,1400.21 3922.85,1400.70 3923.42,1400.93 3924.19,1400.91"/>
    </edge>
    <edge id=":1636858044_3" function="internal">
        <lane id=":1636858044_3_0" index="0" disallow="tram rail_urban rail rail_electric rail_fast ship" speed="3.65" length="4.67" shape="3922.32,1399.46 3921.61,1400.72 3920.85,1401.18 3920.02,1400.85 3919.13,1399.71"/>
    </edge>
    <edge id=":1636858051_0" function="internal">
        <lane id=":1636858051_0_0" index="0" disallow="pedestrian bicycle tram rail_urban rail rail_electric rail_fast ship" speed="27.78" length="38.82" shape="4281.53,1354.04 4272.71,1354.89 4262.18,1355.24 4251.63,1355.53 4242.78,1356.20"/>
    </edge>
    <edge id=":1636858051_1" function="internal">
        <lane id=":1636858051_1_0" index="0" disallow="pedestrian bicycle tram rail_urban rail rail_electric rail_fast ship" speed="20.84" length="4.21" shape="4281.00,1350.88 4276.80,1350.75"/>
    </edge>
    <edge id=":1636858051_2" function="internal">
        <lane id=":1636858051_2_0" index="0" disallow="pedestrian bicycle tram rail_urban rail rail_electric rail_fast ship" speed="3.65" length="1.44" shape="4281.00,1350.88 4279.69,1350.29"/>
    </edge>
    <edge id=":1636858051_9" function="internal">
        <lane id=":1636858051_9_0" index="0" disallow="pedestrian bicycle tram rail_urban rail rail_electric rail_fast ship" speed="20.84" length="34.80" shape="4276.80,1350.75 4272.29,1350.61 4262.03,1348.16 4251.82,1344.85 4243.28,1341.97"/>
    </edge>
    <edge id=":1636858051_10" function="internal">
        <lane id=":1636858051_10_0" index="0" disallow="pedestrian bicycle tram rail_urban rail rail_electric rail_fast ship" speed="3.65" length="3.23" shape="4279.69,1350.29 4279.16,1349.57 4279.42,1348.71 4280.47,1347.73"/>
    </edge>
    <edge id=":1636858051_3" function="internal">
        <lane id=":1636858051_3_0" index="0" disallow="pedestrian bicycle tram rail_urban rail rail_electric rail_fast ship" speed="20.84" length="36.39" shape="4244.23,1338.91 4252.45,1341.28 4261.97,1343.48 4271.54,1344.80 4279.94,1344.57"/>
    </edge>
    <edge id=":1636858051_4" function="internal">
        <lane id=":1636858051_4_0" index="0" disallow="pedestrian bicycle tram rail_urban rail rail_electric rail_fast ship" speed="7.61" length="23.79" shape="4244.23,1338.91 4249.23,1342.64 4250.54,1348.15 4248.33,1353.36 4242.78,1356.20"/>
    </edge>
    <edge id=":1636858051_5" function="internal">
        <lane id=":1636858051_5_0" index="0" disallow="tram rail_urban rail rail_electric rail_fast ship" speed="3.65" length="4.67" shape="4244.23,1338.91 4245.14,1340.03 4245.29,1340.92 4244.67,1341.56 4243.28,1341.97"/>
    </edge>
    <edge id=":1636858051_6" function="internal">
        <lane id=":1636858051_6_0" index="0" disallow="pedestrian bicycle tram rail_urban rail rail_electric rail_fast ship" speed="8.22" length="28.05" shape="4242.36,1353.03 4251.99,1351.05 4255.35,1348.55 4252.45,1345.52 4243.28,1341.97"/>
    </edge>
    <edge id=":1636858051_7" function="internal">
        <lane id=":1636858051_7_0" index="0" disallow="pedestrian bicycle tram rail_urban rail rail_electric rail_fast ship" speed="27.78" length="38.48" shape="4242.36,1353.03 4280.47,1347.73"/>
    </edge>
    <edge id=":1636858051_8" function="internal">
        <lane id=":1636858051_8_0" index="0" disallow="pedestrian bicycle tram rail_urban rail rail_electric rail_fast ship" speed="3.65" length="1.44" shape="4242.36,1353.03 4243.65,1353.66"/>
    </edge>
    <edge id=":1636858051_11" function="internal">
        <lane id=":1636858051_11_0" index="0" disallow="pedestrian bicycle tram rail_urban rail rail_electric rail_fast ship" speed="3.65" length="3.23" shape="4243.65,1353.66 4244.16,1354.40 4243.87,1355.25 4242.78,1356.20"/>
    </edge>
    <edge id=":1636858057_0" function="internal">
        <lane id=":1636858057_0_0" index="0" disallow="tram rail_urban rail rail_electric rail_fast ship" speed="3.65" length="4.67" shape="3673.35,1313.16 3671.99,1312.68 3671.40,1312.01 3671.59,1311.14 3672.55,1310.06"/>
    </edge>
    <edge id=":1636858084_0" function="internal">
        <lane id=":1636858084_0_0" index="0" disallow="tram rail_urban rail rail_electric rail_fast ship" speed="3.65" length="4.67" shape="3710.09,1161.46 3709.45,1160.17 3709.51,1159.28 3710.25,1158.79 3711.69,1158.70"/>
    </edge>
    <edge id=":1636858101_0" function="internal">
        <lane id=":1636858101_0_0" index="0" disallow="tram rail_urban rail rail_electric rail_fast ship" speed="24.26" length="19.83" shape="4813.21,855.34 4808.71,859.07 4805.90,862.00 4803.74,865.44 4801.15,870.70"/>
        <lane id=":1636858101_0_1" index="1" disallow="tram rail_urban rail rail_electric rail_fast ship" speed="24.33" length="19.95" shape="4813.21,855.34 4808.31,858.72 4804.67,860.87 4801.66,863.53 4798.68,868.44"/>
    </edge>
    <edge id=":1636858101_2" function="internal">
        <lane id=":1636858101_2_0" index="0" disallow="tram rail_urban rail rail_electric rail_fast ship" speed="17.40" length="20.08" shape="4813.21,855.34 4808.64,859.32 4805.33,862.12 4801.62,863.84 4795.84,864.58"/>
        <lane id=":1636858101_2_1" index="1" disallow="tram rail_urban rail rail_electric rail_fast ship" speed="17.19" length="20.08" shape="4811.21,852.84 4806.51,856.17 4802.78,857.68 4798.64,858.13 4792.76,858.29"/>
    </edge>
    <edge id=":1637082873_0" function="internal">
        <lane id=":1637082873_0_0" index="0" disallow="tram rail_urban rail rail_electric rail_fast ship" speed="3.65" length="4.67" shape="5688.62,2275.78 5687.25,2275.34 5686.64,2274.68 5686.81,2273.80 5687.74,2272.70"/>
    </edge>
    <edge id=":1637082881_0" function="internal">
        <lane id=":1637082881_0_0" index="0" disallow="tram rail_urban rail rail_electric rail_fast ship" speed="3.65" length="4.67" shape="5035.29,2249.92 5034.63,2251.20 5033.88,2251.69 5033.04,2251.38 5032.11,2250.28"/>
    </edge>
    <edge id=":1637082909_0" function="internal">
        <lane id=":1637082909_0_0" index="0" disallow="tram rail_urban rail rail_electric rail_fast ship" speed="13.89" length="14.69" shape="5718.84,2142.72 5717.52,2157.35"/>
    </edge>
    <edge id=":1637082909_1" function="internal">
        <lane id=":1637082909_1_0" index="0" disallow="tram rail_urban rail rail_electric rail_fast ship" speed="7.88" length="4.36" shape="5718.84,2142.72 5718.04,2146.63 5717.83,2146.92"/>
    </edge>
    <edge id=":1637082909_2" function="internal">
        <lane id=":1637082909_2_0" index="0" disallow="tram rail_urban rail rail_electric rail_fast ship" speed="3.65" length="1.44" shape="5718.84,2142.72 5717.97,2143.87"/>
    </edge>
    <edge id=":1637082909_9" function="internal">
        <lane id=":1637082909_9_0" index="0" disallow="tram rail_urban rail rail_electric rail_fast ship" speed="7.88" length="10.10" shape="5717.83,2146.92 5716.17,2149.26 5713.23,2150.61 5709.23,2150.67"/>
    </edge>
    <edge id=":1637082909_10" function="internal">
        <lane id=":1637082909_10_0" index="0" disallow="tram rail_urban rail rail_electric rail_fast ship" speed="3.65" length="3.23" shape="5717.97,2143.87 5717.15,2144.22 5716.38,2143.77 5715.65,2142.52"/>
    </edge>
    <edge id=":1637082909_3" function="internal">
        <lane id=":1637082909_3_0" index="0" disallow="tram rail_urban rail rail_electric rail_fast ship" speed="6.37" length="9.04" shape="5709.64,2147.50 5712.14,2147.46 5713.98,2146.62 5715.15,2144.97 5715.65,2142.52"/>
    </edge>
    <edge id=":1637082909_4" function="internal">
        <lane id=":1637082909_4_0" index="0" disallow="tram rail_urban rail rail_electric rail_fast ship" speed="8.07" length="14.37" shape="5709.64,2147.50 5713.49,2148.54 5716.08,2150.53 5717.42,2153.47 5717.52,2157.35"/>
    </edge>
    <edge id=":1637082909_5" function="internal">
        <lane id=":1637082909_5_0" index="0" disallow="tram rail_urban rail rail_electric rail_fast ship" speed="3.65" length="4.67" shape="5709.64,2147.50 5710.73,2148.44 5711.02,2149.29 5710.53,2150.03 5709.23,2150.67"/>
    </edge>
    <edge id=":1637082909_6" function="internal">
        <lane id=":1637082909_6_0" index="0" disallow="tram rail_urban rail rail_electric rail_fast ship" speed="6.59" length="9.23" shape="5714.34,2156.96 5714.28,2154.49 5713.40,2152.62 5711.72,2151.34 5709.23,2150.67"/>
    </edge>
    <edge id=":1637082909_7" function="internal">
        <lane id=":1637082909_7_0" index="0" disallow="tram rail_urban rail rail_electric rail_fast ship" speed="13.89" length="14.50" shape="5714.34,2156.96 5715.65,2142.52"/>
    </edge>
    <edge id=":1637082909_8" function="internal">
        <lane id=":1637082909_8_0" index="0" disallow="tram rail_urban rail rail_electric rail_fast ship" speed="3.65" length="1.44" shape="5714.34,2156.96 5715.28,2155.87"/>
    </edge>
    <edge id=":1637082909_11" function="internal">
        <lane id=":1637082909_11_0" index="0" disallow="tram rail_urban rail rail_electric rail_fast ship" speed="3.65" length="3.23" shape="5715.28,2155.87 5716.12,2155.57 5716.87,2156.06 5717.52,2157.35"/>
    </edge>
    <edge id=":1637082915_0" function="internal">
        <lane id=":1637082915_0_0" index="0" disallow="tram rail_urban rail rail_electric rail_fast ship" speed="3.65" length="4.67" shape="4710.59,2134.49 4711.08,2135.85 4710.93,2136.73 4710.13,2137.14 4708.69,2137.07"/>
    </edge>
    <edge id=":1637082929_0" function="internal">
        <lane id=":1637082929_0_0" index="0" disallow="tram rail_urban rail rail_electric rail_fast ship" speed="3.65" length="4.67" shape="5449.98,2072.19 5449.38,2073.51 5448.66,2074.03 5447.80,2073.76 5446.82,2072.71"/>
    </edge>
    <edge id=":1637082930_0" function="internal">
        <lane id=":1637082930_0_0" index="0" disallow="tram rail_urban rail rail_electric rail_fast ship" speed="3.65" length="4.67" shape="4869.92,2067.55 4869.20,2068.80 4868.43,2069.26 4867.61,2068.91 4866.72,2067.77"/>
    </edge>
    <edge id=":1637082938_0" function="internal">
        <lane id=":1637082938_0_0" index="0" disallow="tram rail_urban rail rail_electric rail_fast ship" speed="13.89" length="18.54" shape="4660.03,2061.78 4657.73,2058.18 4654.61,2054.32 4651.27,2050.62 4648.32,2047.46"/>
    </edge>
    <edge id=":1637082938_1" function="internal">
        <lane id=":1637082938_1_0" index="0" disallow="tram rail_urban rail rail_electric rail_fast ship" speed="13.89" length="19.45" shape="4660.03,2061.78 4658.48,2057.64 4657.22,2052.52 4656.22,2047.32 4655.49,2042.91"/>
    </edge>
    <edge id=":1637082938_2" function="internal">
        <lane id=":1637082938_2_0" index="0" disallow="tram rail_urban rail rail_electric rail_fast ship" speed="3.65" length="1.34" shape="4660.03,2061.78 4660.19,2060.46"/>
    </edge>
    <edge id=":1637082938_9" function="internal">
        <lane id=":1637082938_9_0" index="0" disallow="tram rail_urban rail rail_electric rail_fast ship" speed="3.65" length="3.34" shape="4660.19,2060.46 4660.20,2060.35 4660.73,2059.63 4661.63,2059.63 4662.88,2060.34"/>
    </edge>
    <edge id=":1637082938_3" function="internal">
        <lane id=":1637082938_3_0" index="0" disallow="tram rail_urban rail rail_electric rail_fast ship" speed="13.89" length="18.49" shape="4658.65,2042.40 4659.33,2046.65 4660.22,2051.54 4661.38,2056.35 4662.88,2060.34"/>
    </edge>
    <edge id=":1637082938_4" function="internal">
        <lane id=":1637082938_4_0" index="0" disallow="tram rail_urban rail rail_electric rail_fast ship" speed="7.70" length="22.85" shape="4658.65,2042.40 4659.21,2050.07 4657.67,2053.47 4654.04,2052.60 4648.32,2047.46"/>
    </edge>
    <edge id=":1637082938_5" function="internal">
        <lane id=":1637082938_5_0" index="0" disallow="tram rail_urban rail rail_electric rail_fast ship" speed="3.65" length="4.67" shape="4658.65,2042.40 4658.05,2043.71 4657.33,2044.23 4656.47,2043.97 4655.49,2042.91"/>
    </edge>
    <edge id=":1637082938_6" function="internal">
        <lane id=":1637082938_6_0" index="0" disallow="tram rail_urban rail rail_electric rail_fast ship" speed="5.48" length="10.68" shape="4650.66,2045.28 4653.34,2047.69 4655.03,2048.09 4655.75,2046.50 4655.49,2042.91"/>
    </edge>
    <edge id=":1637082938_7" function="internal">
        <lane id=":1637082938_7_0" index="0" disallow="tram rail_urban rail rail_electric rail_fast ship" speed="13.89" length="19.43" shape="4650.66,2045.28 4653.69,2048.55 4657.20,2052.51 4660.50,2056.62 4662.88,2060.34"/>
    </edge>
    <edge id=":1637082938_8" function="internal">
        <lane id=":1637082938_8_0" index="0" disallow="tram rail_urban rail rail_electric rail_fast ship" speed="3.65" length="1.44" shape="4650.66,2045.28 4650.89,2046.71"/>
    </edge>
    <edge id=":1637082938_10" function="internal">
        <lane id=":1637082938_10_0" index="0" disallow="tram rail_urban rail rail_electric rail_fast ship" speed="3.65" length="3.23" shape="4650.89,2046.71 4650.58,2047.54 4649.72,2047.80 4648.32,2047.46"/>
    </edge>
    <edge id=":1637082954_0" function="internal">
        <lane id=":1637082954_0_0" index="0" disallow="tram rail_urban rail rail_electric rail_fast ship" speed="3.65" length="4.67" shape="3950.54,1991.31 3949.10,1991.35 3948.31,1990.92 3948.18,1990.04 3948.70,1988.69"/>
    </edge>
    <edge id=":1637082961_0" function="internal">
        <lane id=":1637082961_0_0" index="0" disallow="tram rail_urban rail rail_electric rail_fast ship" speed="3.65" length="4.67" shape="5200.47,1962.15 5199.75,1963.40 5198.97,1963.85 5198.15,1963.50 5197.27,1962.35"/>
    </edge>
    <edge id=":1637082969_0" function="internal">
        <lane id=":1637082969_0_0" index="0" disallow="tram rail_urban rail rail_electric rail_fast ship" speed="3.65" length="4.67" shape="5266.07,1957.35 5265.15,1958.46 5264.31,1958.77 5263.56,1958.29 5262.89,1957.01"/>
    </edge>
    <edge id=":1637082970_0" function="internal">
        <lane id=":1637082970_0_0" index="0" disallow="tram rail_urban rail rail_electric rail_fast ship" speed="3.65" length="4.67" shape="4594.61,1965.30 4593.94,1966.57 4593.18,1967.05 4592.34,1966.73 4591.43,1965.62"/>
    </edge>
    <edge id=":1637082973_0" function="internal">
        <lane id=":1637082973_0_0" index="0" disallow="tram rail_urban rail rail_electric rail_fast ship" speed="3.65" length="4.67" shape="4730.22,1955.03 4729.53,1956.29 4728.76,1956.75 4727.93,1956.42 4727.04,1955.29"/>
    </edge>
    <edge id=":1637082975_0" function="internal">
        <lane id=":1637082975_0_0" index="0" disallow="tram rail_urban rail rail_electric rail_fast ship" speed="3.65" length="4.67" shape="5338.47,1949.54 5337.81,1950.82 5337.06,1951.31 5336.22,1951.00 5335.29,1949.90"/>
    </edge>
    <edge id=":1637082979_0" function="internal">
        <lane id=":1637082979_0_0" index="0" disallow="tram rail_urban rail rail_electric rail_fast ship" speed="13.89" length="14.09" shape="4282.02,1943.06 4272.65,1932.54"/>
    </edge>
    <edge id=":1637082979_1" function="internal">
        <lane id=":1637082979_1_0" index="0" disallow="tram rail_urban rail rail_electric rail_fast ship" speed="7.89" length="3.88" shape="4282.02,1943.06 4279.98,1939.75"/>
    </edge>
    <edge id=":1637082979_2" function="internal">
        <lane id=":1637082979_2_0" index="0" disallow="tram rail_urban rail rail_electric rail_fast ship" speed="3.65" length="1.44" shape="4282.02,1943.06 4281.87,1941.63"/>
    </edge>
    <edge id=":1637082979_9" function="internal">
        <lane id=":1637082979_9_0" index="0" disallow="tram rail_urban rail rail_electric rail_fast ship" speed="7.89" length="10.55" shape="4279.98,1939.75 4279.93,1939.67 4279.48,1936.47 4280.69,1933.47 4283.54,1930.68"/>
    </edge>
    <edge id=":1637082979_10" function="internal">
        <lane id=":1637082979_10_0" index="0" disallow="tram rail_urban rail rail_electric rail_fast ship" speed="3.65" length="3.23" shape="4281.87,1941.63 4282.23,1940.81 4283.10,1940.60 4284.48,1941.01"/>
    </edge>
    <edge id=":1637082979_3" function="internal">
        <lane id=":1637082979_3_0" index="0" disallow="tram rail_urban rail rail_electric rail_fast ship" speed="6.38" length="9.04" shape="4285.43,1933.26 4283.64,1935.01 4282.89,1936.89 4283.17,1938.89 4284.48,1941.01"/>
    </edge>
    <edge id=":1637082979_4" function="internal">
        <lane id=":1637082979_4_0" index="0" disallow="tram rail_urban rail rail_electric rail_fast ship" speed="8.41" length="14.21" shape="4285.43,1933.26 4281.97,1935.17 4278.68,1935.69 4275.58,1934.81 4272.65,1932.54"/>
    </edge>
    <edge id=":1637082979_5" function="internal">
        <lane id=":1637082979_5_0" index="0" disallow="tram rail_urban rail rail_electric rail_fast ship" speed="3.65" length="4.67" shape="4285.43,1933.26 4283.99,1933.33 4283.19,1932.92 4283.04,1932.04 4283.54,1930.68"/>
    </edge>
    <edge id=":1637082979_6" function="internal">
        <lane id=":1637082979_6_0" index="0" disallow="tram rail_urban rail rail_electric rail_fast ship" speed="6.99" length="9.52" shape="4274.96,1930.33 4276.90,1931.81 4278.97,1932.37 4281.18,1931.99 4283.54,1930.68"/>
    </edge>
    <edge id=":1637082979_7" function="internal">
        <lane id=":1637082979_7_0" index="0" disallow="tram rail_urban rail rail_electric rail_fast ship" speed="13.89" length="14.31" shape="4274.96,1930.33 4284.48,1941.01"/>
    </edge>
    <edge id=":1637082979_8" function="internal">
        <lane id=":1637082979_8_0" index="0" disallow="tram rail_urban rail rail_electric rail_fast ship" speed="3.65" length="1.44" shape="4274.96,1930.33 4275.21,1931.75"/>
    </edge>
    <edge id=":1637082979_11" function="internal">
        <lane id=":1637082979_11_0" index="0" disallow="tram rail_urban rail rail_electric rail_fast ship" speed="3.65" length="3.23" shape="4275.21,1931.75 4274.91,1932.59 4274.06,1932.85 4272.65,1932.54"/>
    </edge>
    <edge id=":1637082984_0" function="internal">
        <lane id=":1637082984_0_0" index="0" disallow="tram rail_urban rail rail_electric rail_fast ship" speed="3.65" length="4.67" shape="5022.46,1931.83 5021.80,1933.11 5021.05,1933.60 5020.21,1933.29 5019.28,1932.19"/>
    </edge>
    <edge id=":1637082987_0" function="internal">