<?xml version="1.0" encoding="UTF-8"?>

<!-- generated on 2024-01-11 18:56:31.613662 by randomTrips.py v1_19_0+0000-baa66a0f364
<configuration>
    <net-file value="osm.net.xml"/>
    <additional-files value="osm.add.xml"/>
    <output-trip-file value="osm.police.trips.xml"/>
    <prefix value="pol_"/>
    <trip-attributes value="guiShape=&quot;police&quot; departLane=&quot;best&quot; departSpeed=&quot;max&quot; departPos=&quot;random&quot;"/>
    <vehicle-class value="passenger"/>
    <end value="40000.0"/>
    <period value="50.0"/>
    <binomial value="25"/>
</configuration>
-->

<routes xmlns:xsi="http://www.w3.org/2001/XMLSchema-instance" xsi:noNamespaceSchemaLocation="http://sumo.dlr.de/xsd/routes_file.xsd">
    <vType id="pol__passenger" vClass="passenger" guiShape="police"/>
    <trip id="pol_0" depart="4.00" from="-257846693#3" to="-150837077#0" departLane="best" departSpeed="max" departPos="random" type="pol__passenger"/>
    <trip id="pol_1" depart="15.00" from="-193107812#0" to="-70193391#2" departLane="best" departSpeed="max" departPos="random" type="pol__passenger"/>
    <trip id="pol_2" depart="101.00" from="70193392#6" to="-150837499#3" departLane="best" departSpeed="max" departPos="random" type="pol__passenger"/>
    <trip id="pol_3" depart="116.00" from="673765757#8" to="-150837499#1" departLane="best" departSpeed="max" departPos="random" type="pol__passenger"/>
    <trip id="pol_4" depart="140.00" from="-150837268#2" to="150837433#2" departLane="best" departSpeed="max" departPos="random" type="pol__passenger"/>
    <trip id="pol_5" depart="163.00" from="-150837453#0" to="t_w" departLane="best" departSpeed="max" departPos="random" type="pol__passenger"/>
    <trip id="pol_6" depart="173.00" from="479688953#1" to="479690293#1" departLane="best" departSpeed="max" departPos="random" type="pol__passenger"/>
    <trip id="pol_7" depart="179.00" from="150837478#8" to="-537254108" departLane="best" departSpeed="max" departPos="random" type="pol__passenger"/>
    <trip id="pol_8" depart="208.00" from="-150837433#1" to="-150837443" departLane="best" departSpeed="max" departPos="random" type="pol__passenger"/>
    <trip id="pol_9" depart="286.00" from="70193383#0" to="150837077#3" departLane="best" departSpeed="max" departPos="random" type="pol__passenger"/>
    <trip id="pol_10" depart="331.00" from="-193161031" to="70193388#5" departLane="best" departSpeed="max" departPos="random" type="pol__passenger"/>
    <trip id="pol_11" depart="387.00" from="-150921687#2" to="-479690293#2" departLane="best" departSpeed="max" departPos="random" type="pol__passenger"/>
    <trip id="pol_12" depart="391.00" from="150837433#2" to="-150837379#1" departLane="best" departSpeed="max" departPos="random" type="pol__passenger"/>
    <trip id="pol_13" depart="456.00" from="193161028#1" to="150837433#0" departLane="best" departSpeed="max" departPos="random" type="pol__passenger"/>
    <trip id="pol_14" depart="474.00" from="-150921687#2" to="150837268#9" departLane="best" departSpeed="max" departPos="random" type="pol__passenger"/>
    <trip id="pol_15" depart="521.00" from="-150837077#6" to="-150837191#1" departLane="best" departSpeed="max" departPos="random" type="pol__passenger"/>
    <trip id="pol_16" depart="521.00" from="-941459814#1" to="150921818#1" departLane="best" departSpeed="max" departPos="random" type="pol__passenger"/>
    <trip id="pol_17" depart="527.00" from="259055473#3" to="150837172#2" departLane="best" departSpeed="max" departPos="random" type="pol__passenger"/>
    <trip id="pol_18" depart="546.00" from="150812841#2" to="331243177" departLane="best" departSpeed="max" departPos="random" type="pol__passenger"/>
    <trip id="pol_19" depart="550.00" from="-150837200#0" to="479690299" departLane="best" departSpeed="max" departPos="random" type="pol__passenger"/>
    <trip id="pol_20" depart="577.00" from="150921480#1" to="70193383#0" departLane="best" departSpeed="max" departPos="random" type="pol__passenger"/>
    <trip id="pol_21" depart="611.00" from="150837479#3" to="150837528#2" departLane="best" departSpeed="max" departPos="random" type="pol__passenger"/>
    <trip id="pol_22" depart="677.00" from="-150837246" to="-150837427#0" departLane="best" departSpeed="max" departPos="random" type="pol__passenger"/>
    <trip id="pol_23" depart="707.00" from="-150837426" to="-150921708#0" departLane="best" departSpeed="max" departPos="random" type="pol__passenger"/>
    <trip id="pol_24" depart="740.00" from="479780488#9" to="150837347#0" departLane="best" departSpeed="max" departPos="random" type="pol__passenger"/>
    <trip id="pol_25" depart="831.00" from="673765757#8" to="-193107842" departLane="best" departSpeed="max" departPos="random" type="pol__passenger"/>
    <trip id="pol_26" depart="840.00" from="-150921818#0" to="-70193392#0" departLane="best" departSpeed="max" departPos="random" type="pol__passenger"/>
    <trip id="pol_27" depart="888.00" from="150812864#6" to="-150921661#0" departLane="best" departSpeed="max" departPos="random" type="pol__passenger"/>
    <trip id="pol_28" depart="949.00" from="-193107835#0" to="150837389#0" departLane="best" departSpeed="max" departPos="random" type="pol__passenger"/>
    <trip id="pol_29" depart="1067.00" from="-70193392#1" to="-150837238#1" departLane="best" departSpeed="max" departPos="random" type="pol__passenger"/>
    <trip id="pol_30" depart="1125.00" from="150837523#4" to="-150837191#1" departLane="best" departSpeed="max" departPos="random" type="pol__passenger"/>
    <trip id="pol_31" depart="1186.00" from="-193161028#1" to="378534333#1" departLane="best" departSpeed="max" departPos="random" type="pol__passenger"/>
    <trip id="pol_32" depart="1188.00" from="479690302#2" to="-150837478#12" departLane="best" departSpeed="max" departPos="random" type="pol__passenger"/>
    <trip id="pol_33" depart="1308.00" from="-150837193#1" to="-150837444" departLane="best" departSpeed="max" departPos="random" type="pol__passenger"/>
    <trip id="pol_34" depart="1393.00" from="-150837427#1" to="656052090" departLane="best" departSpeed="max" departPos="random" type="pol__passenger"/>
    <trip id="pol_35" depart="1505.00" from="-690332512#5" to="150837427#2" departLane="best" departSpeed="max" departPos="random" type="pol__passenger"/>
    <trip id="pol_36" depart="1598.00" from="150837129#0" to="150837222" departLane="best" departSpeed="max" departPos="random" type="pol__passenger"/>
    <trip id="pol_37" depart="1659.00" from="150921720#1" to="-479690295#1" departLane="best" departSpeed="max" departPos="random" type="pol__passenger"/>
    <trip id="pol_38" depart="1674.00" from="-150837200#0" to="-150837198#1" departLane="best" departSpeed="max" departPos="random" type="pol__passenger"/>
    <trip id="pol_39" depart="1694.00" from="-259055473#2" to="-150837482#7" departLane="best" departSpeed="max" departPos="random" type="pol__passenger"/>
    <trip id="pol_40" depart="1720.00" from="150812864#3" to="150837427#2" departLane="best" departSpeed="max" departPos="random" type="pol__passenger"/>
    <trip id="pol_41" depart="1725.00" from="-150837478#2" to="479688953#1" departLane="best" departSpeed="max" departPos="random" type="pol__passenger"/>
    <trip id="pol_42" depart="1751.00" from="257846693#0" to="-150837482#3" departLane="best" departSpeed="max" departPos="random" type="pol__passenger"/>
    <trip id="pol_43" depart="1820.00" from="-150837077#3" to="150921661#1" departLane="best" departSpeed="max" departPos="random" type="pol__passenger"/>
    <trip id="pol_44" depart="1852.00" from="-479688691#0" to="150837238#0" departLane="best" departSpeed="max" departPos="random" type="pol__passenger"/>
    <trip id="pol_45" depart="1911.00" from="941715210#5" to="-150837523#7" departLane="best" departSpeed="max" departPos="random" type="pol__passenger"/>
    <trip id="pol_46" depart="1987.00" from="479690289#2" to="-941715210#5" departLane="best" departSpeed="max" departPos="random" type="pol__passenger"/>
    <trip id="pol_47" depart="2127.00" from="-150813160#0" to="602111793" departLane="best" departSpeed="max" departPos="random" type="pol__passenger"/>
    <trip id="pol_48" depart="2194.00" from="193638676#0" to="673765757#9" departLane="best" departSpeed="max" departPos="random" type="pol__passenger"/>
    <trip id="pol_49" depart="2317.00" from="-150837396#0" to="-150837168" departLane="best" departSpeed="max" departPos="random" type="pol__passenger"/>
    <trip id="pol_50" depart="2334.00" from="-479780488#9" to="150837295#0" departLane="best" departSpeed="max" departPos="random" type="pol__passenger"/>
    <trip id="pol_51" depart="2344.00" from="150837238#1" to="150837195#0" departLane="best" departSpeed="max" departPos="random" type="pol__passenger"/>
    <trip id="pol_52" depart="2435.00" from="479690289#11" to="70193392#1" departLane="best" departSpeed="max" departPos="random" type="pol__passenger"/>
    <trip id="pol_53" depart="2450.00" from="479690025#0" to="-257846693#3" departLane="best" departSpeed="max" departPos="random" type="pol__passenger"/>
    <trip id="pol_54" depart="2640.00" from="150837389#1" to="-941715210#0" departLane="best" departSpeed="max" departPos="random" type="pol__passenger"/>
    <trip id="pol_55" depart="2660.00" from="-257846693#5" to="150837191#0" departLane="best" departSpeed="max" departPos="random" type="pol__passenger"/>
    <trip id="pol_56" depart="2717.00" from="941745039#1" to="-70193383#3" departLane="best" departSpeed="max" departPos="random" type="pol__passenger"/>
    <trip id="pol_57" depart="2798.00" from="-479780488#1" to="193107812#2" departLane="best" departSpeed="max" departPos="random" type="pol__passenger"/>
    <trip id="pol_58" depart="2839.00" from="-150837077#7" to="-150837199#0" departLane="best" departSpeed="max" departPos="random" type="pol__passenger"/>
    <trip id="pol_59" depart="2916.00" from="150837077#0" to="150837478#2" departLane="best" departSpeed="max" departPos="random" type="pol__passenger"/>
    <trip id="pol_60" depart="2982.00" from="150837479#2" to="-257846693#1" departLane="best" departSpeed="max" departPos="random" type="pol__passenger"/>
    <trip id="pol_61" depart="3115.00" from="-150837482#5" to="150837478#7" departLane="best" departSpeed="max" departPos="random" type="pol__passenger"/>
    <trip id="pol_62" depart="3169.00" from="-193107812#1" to="150837254#0" departLane="best" departSpeed="max" departPos="random" type="pol__passenger"/>
    <trip id="pol_63" depart="3176.00" from="150921708#0" to="70193392#6" departLane="best" departSpeed="max" departPos="random" type="pol__passenger"/>
    <trip id="pol_64" depart="3180.00" from="150837193#0" to="-150837442#1" departLane="best" departSpeed="max" departPos="random" type="pol__passenger"/>
    <trip id="pol_65" depart="3191.00" from="150921629#0" to="-70193392#6" departLane="best" departSpeed="max" departPos="random" type="pol__passenger"/>
    <trip id="pol_66" depart="3193.00" from="150921818#2" to="941745039#1" departLane="best" departSpeed="max" departPos="random" type="pol__passenger"/>
    <trip id="pol_67" depart="3356.00" from="150812841#0" to="-150837407#0" departLane="best" departSpeed="max" departPos="random" type="pol__passenger"/>
    <trip id="pol_68" depart="3402.00" from="150921513" to="690332521#0" departLane="best" departSpeed="max" departPos="random" type="pol__passenger"/>
    <trip id="pol_69" depart="3483.00" from="-150813160#0" to="941745039#7" departLane="best" departSpeed="max" departPos="random" type="pol__passenger"/>
    <trip id="pol_70" depart="3576.00" from="150837453#0" to="150837499#8" departLane="best" departSpeed="max" departPos="random" type="pol__passenger"/>
    <trip id="pol_71" depart="3595.00" from="-479688691#1" to="479690281#2" departLane="best" departSpeed="max" departPos="random" type="pol__passenger"/>
    <trip id="pol_72" depart="3627.00" from="-257571789#0" to="-690332512#1" departLane="best" departSpeed="max" departPos="random" type="pol__passenger"/>
    <trip id="pol_73" depart="3720.00" from="150837453#1" to="-150837482#2" departLane="best" departSpeed="max" departPos="random" type="pol__passenger"/>
    <trip id="pol_74" depart="3875.00" from="-70193392#6" to="-150837478#2" departLane="best" departSpeed="max" departPos="random" type="pol__passenger"/>
    <trip id="pol_75" depart="3902.00" from="-259055473#1" to="150921756#1" departLane="best" departSpeed="max" departPos="random" type="pol__passenger"/>
    <trip id="pol_76" depart="3908.00" from="-378534333#0" to="-150837276#1" departLane="best" departSpeed="max" departPos="random" type="pol__passenger"/>
    <trip id="pol_77" depart="3909.00" from="479690306#1" to="259055473#4" departLane="best" departSpeed="max" departPos="random" type="pol__passenger"/>
    <trip id="pol_78" depart="3912.00" from="-193638676#0" to="941459814#2" departLane="best" departSpeed="max" departPos="random" type="pol__passenger"/>
    <trip id="pol_79" depart="4081.00" from="150837528#7" to="257846693#3" departLane="best" departSpeed="max" departPos="random" type="pol__passenger"/>
    <trip id="pol_80" depart="4138.00" from="479688691#1" to="-479690293#2" departLane="best" departSpeed="max" departPos="random" type="pol__passenger"/>
    <trip id="pol_81" depart="4176.00" from="150837479#0" to="-479690293#2" departLane="best" departSpeed="max" departPos="random" type="pol__passenger"/>
    <trip id="pol_82" depart="4281.00" from="150921822#0" to="479690290#0" departLane="best" departSpeed="max" departPos="random" type="pol__passenger"/>
    <trip id="pol_83" depart="4371.00" from="480188364#1" to="-150921480#1" departLane="best" departSpeed="max" departPos="random" type="pol__passenger"/>
    <trip id="pol_84" depart="4377.00" from="70193383#1" to="-193638677" departLane="best" departSpeed="max" departPos="random" type="pol__passenger"/>
    <trip id="pol_85" depart="4390.00" from="150837347#1" to="150812864#6" departLane="best" departSpeed="max" departPos="random" type="pol__passenger"/>
    <trip id="pol_86" depart="4520.00" from="-150837482#3" to="150837268#2" departLane="best" departSpeed="max" departPos="random" type="pol__passenger"/>
    <trip id="pol_87" depart="4527.00" from="941745039#8" to="150837433#2" departLane="best" departSpeed="max" departPos="random" type="pol__passenger"/>
    <trip id="pol_88" depart="4542.00" from="-193107835#2" to="479780488#2" departLane="best" departSpeed="max" departPos="random" type="pol__passenger"/>
    <trip id="pol_89" depart="4636.00" from="-150921629#1" to="150921822#1" departLane="best" departSpeed="max" departPos="random" type="pol__passenger"/>
    <trip id="pol_90" depart="4644.00" from="-150921708#0" to="-150837482#2" departLane="best" departSpeed="max" departPos="random" type="pol__passenger"/>
    <trip id="pol_91" depart="4867.00" from="-150837276#2" to="-150837246" departLane="best" departSpeed="max" departPos="random" type="pol__passenger"/>
    <trip id="pol_92" depart="4875.00" from="479690294#1" to="150837172#0" departLane="best" departSpeed="max" departPos="random" type="pol__passenger"/>
    <trip id="pol_93" depart="4983.00" from="602111789" to="150921661#0" departLane="best" departSpeed="max" departPos="random" type="pol__passenger"/>
    <trip id="pol_94" depart="5163.00" from="941715210#5" to="70193392#3" departLane="best" departSpeed="max" departPos="random" type="pol__passenger"/>
    <trip id="pol_95" depart="5294.00" from="-662231207" to="-150837407#1" departLane="best" departSpeed="max" departPos="random" type="pol__passenger"/>
    <trip id="pol_96" depart="5307.00" from="193107842" to="150837168" departLane="best" departSpeed="max" departPos="random" type="pol__passenger"/>
    <trip id="pol_97" depart="5311.00" from="150837427#3" to="193161031" departLane="best" departSpeed="max" departPos="random" type="pol__passenger"/>
    <trip id="pol_98" depart="5387.00" from="-150837433#0" to="150921753#0" departLane="best" departSpeed="max" departPos="random" type="pol__passenger"/>
    <trip id="pol_99" depart="5516.00" from="70193383#4" to="150837254#1" departLane="best" departSpeed="max" departPos="random" type="pol__passenger"/>
    <trip id="pol_100" depart="5574.00" from="150837482#1" to="150837172#2" departLane="best" departSpeed="max" departPos="random" type="pol__passenger"/>
    <trip id="pol_101" depart="5587.00" from="150837389#0" to="479688953#1" departLane="best" departSpeed="max" departPos="random" type="pol__passenger"/>
    <trip id="pol_102" depart="5705.00" from="690332512#6" to="150812864#11" departLane="best" departSpeed="max" departPos="random" type="pol__passenger"/>
    <trip id="pol_103" depart="5712.00" from="150837077#3" to="150837246" departLane="best" departSpeed="max" departPos="random" type="pol__passenger"/>
    <trip id="pol_104" depart="5760.00" from="150921661#1" to="-537254108" departLane="best" departSpeed="max" departPos="random" type="pol__passenger"/>
    <trip id="pol_105" depart="5799.00" from="479690295#1" to="150837172#2" departLane="best" departSpeed="max" departPos="random" type="pol__passenger"/>
    <trip id="pol_106" depart="5835.00" from="666277190" to="479690289#10" departLane="best" departSpeed="max" departPos="random" type="pol__passenger"/>
    <trip id="pol_107" depart="5853.00" from="-70193388#1" to="150837407#2" departLane="best" departSpeed="max" departPos="random" type="pol__passenger"/>
    <trip id="pol_108" depart="5854.00" from="-479688692#0" to="-150837482#5" departLane="best" departSpeed="max" departPos="random" type="pol__passenger"/>
    <trip id="pol_109" depart="5930.00" from="-150921822#2" to="-150837523#4" departLane="best" departSpeed="max" departPos="random" type="pol__passenger"/>
    <trip id="pol_110" depart="5944.00" from="479690293#1" to="537254108" departLane="best" departSpeed="max" departPos="random" type="pol__passenger"/>
    <trip id="pol_111" depart="6018.00" from="150837453#0" to="-150837442#1" departLane="best" departSpeed="max" departPos="random" type="pol__passenger"/>
    <trip id="pol_112" depart="6146.00" from="70193383#3" to="-656052090" departLane="best" departSpeed="max" departPos="random" type="pol__passenger"/>
    <trip id="pol_113" depart="6183.00" from="150837499#4" to="-150921720#0" departLane="best" departSpeed="max" departPos="random" type="pol__passenger"/>
    <trip id="pol_114" depart="6285.00" from="-259055473#2" to="-479690293#5" departLane="best" departSpeed="max" departPos="random" type="pol__passenger"/>
    <trip id="pol_115" depart="6288.00" from="-378534333#0" to="150837523#2" departLane="best" departSpeed="max" departPos="random" type="pol__passenger"/>
    <trip id="pol_116" depart="6396.00" from="150837499#5" to="150837482#5" departLane="best" departSpeed="max" departPos="random" type="pol__passenger"/>
    <trip id="pol_117" depart="6468.00" from="479688692#0" to="-150921787#3" departLane="best" departSpeed="max" departPos="random" type="pol__passenger"/>
    <trip id="pol_118" depart="6481.00" from="-150921753#0" to="193638676#2" departLane="best" departSpeed="max" departPos="random" type="pol__passenger"/>
    <trip id="pol_119" depart="6481.00" from="150921480#1" to="-150837077#6" departLane="best" departSpeed="max" departPos="random" type="pol__passenger"/>
    <trip id="pol_120" depart="6506.00" from="-150921708#0" to="193107835#1" departLane="best" departSpeed="max" departPos="random" type="pol__passenger"/>
    <trip id="pol_121" depart="6528.00" from="150837268#4" to="-662231882" departLane="best" departSpeed="max" departPos="random" type="pol__passenger"/>
    <trip id="pol_122" depart="6549.00" from="-150812864#10" to="150837268#4" departLane="best" departSpeed="max" departPos="random" type="pol__passenger"/>
    <trip id="pol_123" depart="6718.00" from="-150837254#1" to="193107835#1" departLane="best" departSpeed="max" departPos="random" type="pol__passenger"/>
    <trip id="pol_124" depart="6752.00" from="150921818#0" to="-150921708#0" departLane="best" departSpeed="max" departPos="random" type="pol__passenger"/>
    <trip id="pol_125" depart="6756.00" from="-150812864#10" to="941745039#7" departLane="best" departSpeed="max" departPos="random" type="pol__passenger"/>
    <trip id="pol_126" depart="6906.00" from="-193107835#2" to="t_e" departLane="best" departSpeed="max" departPos="random" type="pol__passenger"/>
    <trip id="pol_127" depart="6915.00" from="150837478#6" to="150812841#2" departLane="best" departSpeed="max" departPos="random" type="pol__passenger"/>
    <trip id="pol_128" depart="6918.00" from="-150837482#4" to="-150837389#1" departLane="best" departSpeed="max" departPos="random" type="pol__passenger"/>
    <trip id="pol_129" depart="6922.00" from="479688999#2" to="672252725" departLane="best" departSpeed="max" departPos="random" type="pol__passenger"/>
    <trip id="pol_130" depart="6933.00" from="193638674" to="-941715210#5" departLane="best" departSpeed="max" departPos="random" type="pol__passenger"/>
    <trip id="pol_131" depart="6943.00" from="-150837108#2" to="-150837482#3" departLane="best" departSpeed="max" departPos="random" type="pol__passenger"/>
    <trip id="pol_132" depart="6988.00" from="150921721#1" to="193107842" departLane="best" departSpeed="max" departPos="random" type="pol__passenger"/>
    <trip id="pol_133" depart="6999.00" from="150921708#0" to="-150837295#0" departLane="best" departSpeed="max" departPos="random" type="pol__passenger"/>
    <trip id="pol_134" depart="7028.00" from="150921687#0" to="150921661#0" departLane="best" departSpeed="max" departPos="random" type="pol__passenger"/>
    <trip id="pol_135" depart="7128.00" from="-150921661#0" to="-150837499#9" departLane="best" departSpeed="max" departPos="random" type="pol__passenger"/>
    <trip id="pol_136" depart="7201.00" from="-70193392#1" to="196125606#1" departLane="best" departSpeed="max" departPos="random" type="pol__passenger"/>
    <trip id="pol_137" depart="7383.00" from="479688999#2" to="-378534333#0" departLane="best" departSpeed="max" departPos="random" type="pol__passenger"/>
    <trip id="pol_138" depart="7444.00" from="150837433#2" to="150837077#3" departLane="best" departSpeed="max" departPos="random" type="pol__passenger"/>
    <trip id="pol_139" depart="7519.00" from="-259055473#3" to="-150837147#0" departLane="best" departSpeed="max" departPos="random" type="pol__passenger"/>
    <trip id="pol_140" depart="7535.00" from="-479690293#3" to="-479688691#2" departLane="best" departSpeed="max" departPos="random" type="pol__passenger"/>
    <trip id="pol_141" depart="7656.00" from="150837129#0" to="150837499#3" departLane="best" departSpeed="max" departPos="random" type="pol__passenger"/>
    <trip id="pol_142" depart="7685.00" from="150837471#0" to="150837077#3" departLane="best" departSpeed="max" departPos="random" type="pol__passenger"/>
    <trip id="pol_143" depart="7728.00" from="-70193388#2" to="E4" departLane="best" departSpeed="max" departPos="random" type="pol__passenger"/>
    <trip id="pol_144" depart="7768.00" from="70193392#2" to="150921822#5" departLane="best" departSpeed="max" departPos="random" type="pol__passenger"/>
    <trip id="pol_145" depart="7805.00" from="150837314" to="-150837268#2" departLane="best" departSpeed="max" departPos="random" type="pol__passenger"/>
    <trip id="pol_146" depart="7819.00" from="941459814#1" to="150837499#9" departLane="best" departSpeed="max" departPos="random" type="pol__passenger"/>
    <trip id="pol_147" depart="7846.00" from="150837198#0" to="-150837077#7" departLane="best" departSpeed="max" departPos="random" type="pol__passenger"/>
    <trip id="pol_148" depart="8058.00" from="-70193392#1" to="-150837268#3" departLane="best" departSpeed="max" departPos="random" type="pol__passenger"/>
    <trip id="pol_149" depart="8102.00" from="673765757#6" to="480188362#1" departLane="best" departSpeed="max" departPos="random" type="pol__passenger"/>
    <trip id="pol_150" depart="8457.00" from="150921822#3" to="193107835#0" departLane="best" departSpeed="max" departPos="random" type="pol__passenger"/>
    <trip id="pol_151" depart="8479.00" from="150837238#6" to="-150921818#0" departLane="best" departSpeed="max" departPos="random" type="pol__passenger"/>
    <trip id="pol_152" depart="8482.00" from="150812841#0" to="-150921687#0" departLane="best" departSpeed="max" departPos="random" type="pol__passenger"/>
    <trip id="pol_153" depart="8529.00" from="-70193392#0" to="479688692#1" departLane="best" departSpeed="max" departPos="random" type="pol__passenger"/>
    <trip id="pol_154" depart="8532.00" from="-150921787#0" to="-479780488#6" departLane="best" departSpeed="max" departPos="random" type="pol__passenger"/>
    <trip id="pol_155" depart="8578.00" from="-150837268#8" to="-150837077#1" departLane="best" departSpeed="max" departPos="random" type="pol__passenger"/>
    <trip id="pol_156" depart="8600.00" from="259055473#4" to="150837453#1" departLane="best" departSpeed="max" departPos="random" type="pol__passenger"/>
    <trip id="pol_157" depart="8638.00" from="-150837528#1" to="-150837200#0" departLane="best" departSpeed="max" departPos="random" type="pol__passenger"/>
    <trip id="pol_158" depart="8734.00" from="-690332521#0" to="196125603" departLane="best" departSpeed="max" departPos="random" type="pol__passenger"/>
    <trip id="pol_159" depart="8752.00" from="-150837191#0" to="-70193391#2" departLane="best" departSpeed="max" departPos="random" type="pol__passenger"/>
    <trip id="pol_160" depart="8762.00" from="-150837482#1" to="-378534333#1" departLane="best" departSpeed="max" departPos="random" type="pol__passenger"/>
    <trip id="pol_161" depart="8790.00" from="150837433#2" to="west" departLane="best" departSpeed="max" departPos="random" type="pol__passenger"/>
    <trip id="pol_162" depart="8844.00" from="150812864#2" to="-257571789#0" departLane="best" departSpeed="max" departPos="random" type="pol__passenger"/>
    <trip id="pol_163" depart="8925.00" from="-690332512#2" to="150837158" departLane="best" departSpeed="max" departPos="random" type="pol__passenger"/>
    <trip id="pol_164" depart="9004.00" from="479690293#2" to="150921753#1" departLane="best" departSpeed="max" departPos="random" type="pol__passenger"/>
    <trip id="pol_165" depart="9058.00" from="-941459814#0" to="150837077#7" departLane="best" departSpeed="max" departPos="random" type="pol__passenger"/>
    <trip id="pol_166" depart="9191.00" from="601770472#2" to="690332512#2" departLane="best" departSpeed="max" departPos="random" type="pol__passenger"/>
    <trip id="pol_167" depart="9224.00" from="-479780488#7" to="-150812864#3" departLane="best" departSpeed="max" departPos="random" type="pol__passenger"/>
    <trip id="pol_168" depart="9283.00" from="480188364#1" to="-479780488#7" departLane="best" departSpeed="max" departPos="random" type="pol__passenger"/>
    <trip id="pol_169" depart="9295.00" from="150837523#7" to="-193638676#0" departLane="best" departSpeed="max" departPos="random" type="pol__passenger"/>
    <trip id="pol_170" depart="9636.00" from="-150837453#2" to="196125601" departLane="best" departSpeed="max" departPos="random" type="pol__passenger"/>
    <trip id="pol_171" depart="9757.00" from="-150837478#1" to="150837077#7" departLane="best" departSpeed="max" departPos="random" type="pol__passenger"/>
    <trip id="pol_172" depart="9765.00" from="602111791" to="-662969525" departLane="best" departSpeed="max" departPos="random" type="pol__passenger"/>
    <trip id="pol_173" depart="9796.00" from="-150837322" to="479690281#5" departLane="best" departSpeed="max" departPos="random" type="pol__passenger"/>
    <trip id="pol_174" depart="9843.00" from="257846693#3" to="150837478#5" departLane="best" departSpeed="max" departPos="random" type="pol__passenger"/>
    <trip id="pol_175" depart="9865.00" from="-150837268#7" to="-150837268#4" departLane="best" departSpeed="max" departPos="random" type="pol__passenger"/>
    <trip id="pol_176" depart="9872.00" from="150837499#7" to="150837523#4" departLane="best" departSpeed="max" departPos="random" type="pol__passenger"/>
    <trip id="pol_177" depart="9877.00" from="150837147#1" to="150837195#0" departLane="best" departSpeed="max" departPos="random" type="pol__passenger"/>
    <trip id="pol_178" depart="9936.00" from="-150837478#12" to="150837453#0" departLane="best" departSpeed="max" departPos="random" type="pol__passenger"/>
    <trip id="pol_179" depart="9951.00" from="150921721#0" to="479780488#3" departLane="best" departSpeed="max" departPos="random" type="pol__passenger"/>
    <trip id="pol_180" depart="9952.00" from="150837478#8" to="-150812841#2" departLane="best" departSpeed="max" departPos="random" type="pol__passenger"/>
    <trip id="pol_181" depart="9989.00" from="150837528#4" to="257571793#0" departLane="best" departSpeed="max" departPos="random" type="pol__passenger"/>
    <trip id="pol_182" depart="10108.00" from="-150837353" to="-193638676#2" departLane="best" departSpeed="max" departPos="random" type="pol__passenger"/>
    <trip id="pol_183" depart="10114.00" from="257846693#0" to="-150837528#4" departLane="best" departSpeed="max" departPos="random" type="pol__passenger"/>
    <trip id="pol_184" depart="10215.00" from="-150921818#0" to="941745039#8" departLane="best" departSpeed="max" departPos="random" type="pol__passenger"/>
    <trip id="pol_185" depart="10250.00" from="150837499#4" to="601770472#1" departLane="best" departSpeed="max" departPos="random" type="pol__passenger"/>
    <trip id="pol_186" depart="10262.00" from="479690295#0" to="-150837478#0" departLane="best" departSpeed="max" departPos="random" type="pol__passenger"/>
    <trip id="pol_187" depart="10283.00" from="-150837478#12" to="331243177" departLane="best" departSpeed="max" departPos="random" type="pol__passenger"/>
    <trip id="pol_188" depart="10331.00" from="150921661#1" to="-150837318#0" departLane="best" departSpeed="max" departPos="random" type="pol__passenger"/>