<?xml version="1.0" encoding="UTF-8"?>

<!-- generated on 2024-01-11 19:54:29.475695 by randomTrips.py v1_19_0+0000-baa66a0f364
<configuration>
    <net-file value="osm.net.xml"/>
    <additional-files value="osm.add.xml"/>
    <output-trip-file value="osm.motorcycle.trips.xml"/>
    <prefix value="moto_"/>
    <trip-attributes value="guiShape=&quot;motorcycle&quot;  departLane=&quot;best&quot; departSpeed=&quot;max&quot; departPos=&quot;random&quot;"/>
    <vehicle-class value="motorcycle"/>
    <end value="40000.0"/>
    <period value="7.0"/>
    <binomial value="1"/>
</configuration>
-->

<routes xmlns:xsi="http://www.w3.org/2001/XMLSchema-instance" xsi:noNamespaceSchemaLocation="http://sumo.dlr.de/xsd/routes_file.xsd">
    <vType id="moto__motorcycle" vClass="motorcycle" guiShape="motorcycle"/>
    <trip id="moto_0" depart="1.00" from="-150921818#3" to="-150837528#1" departLane="best" departSpeed="max" departPos="random" type="moto__motorcycle"/>
    <trip id="moto_1" depart="5.00" from="-70193383#3" to="-150837108#0" departLane="best" departSpeed="max" departPos="random" type="moto__motorcycle"/>
    <trip id="moto_2" depart="8.00" from="-150837497#0" to="150837482#3" departLane="best" departSpeed="max" departPos="random" type="moto__motorcycle"/>
    <trip id="moto_3" depart="13.00" from="479687736#3" to="150921535" departLane="best" departSpeed="max" departPos="random" type="moto__motorcycle"/>
    <trip id="moto_4" depart="18.00" from="-150837268#7" to="479690293#1" departLane="best" departSpeed="max" departPos="random" type="moto__motorcycle"/>
    <trip id="moto_5" depart="31.00" from="-150837528#3" to="-193107817" departLane="best" departSpeed="max" departPos="random" type="moto__motorcycle"/>
    <trip id="moto_6" depart="32.00" from="-150837528#7" to="-150837276#2" departLane="best" departSpeed="max" departPos="random" type="moto__motorcycle"/>
    <trip id="moto_7" depart="53.00" from="-257571789#0" to="-150921787#1" departLane="best" departSpeed="max" departPos="random" type="moto__motorcycle"/>
    <trip id="moto_8" depart="72.00" from="-150837168" to="-150837318#0" departLane="best" departSpeed="max" departPos="random" type="moto__motorcycle"/>
    <trip id="moto_9" depart="76.00" from="-537254108" to="t_w" departLane="best" departSpeed="max" departPos="random" type="moto__motorcycle"/>
    <trip id="moto_10" depart="80.00" from="150921721#0" to="150837528#2" departLane="best" departSpeed="max" departPos="random" type="moto__motorcycle"/>
    <trip id="moto_11" depart="84.00" from="-70193392#0" to="150812841#0" departLane="best" departSpeed="max" departPos="random" type="moto__motorcycle"/>
    <trip id="moto_12" depart="100.00" from="-257846693#3" to="-150837077#0" departLane="best" departSpeed="max" departPos="random" type="moto__motorcycle"/>
    <trip id="moto_13" depart="105.00" from="479780489" to="70193388#5" departLane="best" departSpeed="max" departPos="random" type="moto__motorcycle"/>
    <trip id="moto_14" depart="106.00" from="150837077#7" to="-150837222" departLane="best" departSpeed="max" departPos="random" type="moto__motorcycle"/>
    <trip id="moto_15" depart="109.00" from="150813160#1" to="150837268#4" departLane="best" departSpeed="max" departPos="random" type="moto__motorcycle"/>
    <trip id="moto_16" depart="122.00" from="-150837528#1" to="-479688691#2" departLane="best" departSpeed="max" departPos="random" type="moto__motorcycle"/>
    <trip id="moto_17" depart="126.00" from="150837478#3" to="-150837528#5" departLane="best" departSpeed="max" departPos="random" type="moto__motorcycle"/>
    <trip id="moto_18" depart="129.00" from="-150921480#0" to="150837523#1" departLane="best" departSpeed="max" departPos="random" type="moto__motorcycle"/>
    <trip id="moto_19" depart="131.00" from="70193383#3" to="150837322" departLane="best" departSpeed="max" departPos="random" type="moto__motorcycle"/>
    <trip id="moto_20" depart="136.00" from="-70193391#1" to="-70193388#4" departLane="best" departSpeed="max" departPos="random" type="moto__motorcycle"/>
    <trip id="moto_21" depart="141.00" from="-666936287" to="-479688692#0" departLane="best" departSpeed="max" departPos="random" type="moto__motorcycle"/>
    <trip id="moto_22" depart="153.00" from="west" to="479690289#2" departLane="best" departSpeed="max" departPos="random" type="moto__motorcycle"/>
    <trip id="moto_23" depart="161.00" from="-480188362#2" to="E4" departLane="best" departSpeed="max" departPos="random" type="moto__motorcycle"/>
    <trip id="moto_24" depart="176.00" from="150837389#0" to="150837172#0" departLane="best" departSpeed="max" departPos="random" type="moto__motorcycle"/>
    <trip id="moto_25" depart="180.00" from="-150837479#3" to="150837427#0" departLane="best" departSpeed="max" departPos="random" type="moto__motorcycle"/>
    <trip id="moto_26" depart="183.00" from="601770472#1" to="-150921687#1" departLane="best" departSpeed="max" departPos="random" type="moto__motorcycle"/>
    <trip id="moto_27" depart="198.00" from="150812841#0" to="w_t" departLane="best" departSpeed="max" departPos="random" type="moto__motorcycle"/>
    <trip id="moto_28" depart="200.00" from="-150837523#1" to="-150921756#0" departLane="best" departSpeed="max" departPos="random" type="moto__motorcycle"/>
    <trip id="moto_29" depart="211.00" from="479688999#0" to="-193638676#0" departLane="best" departSpeed="max" departPos="random" type="moto__motorcycle"/>
    <trip id="moto_30" depart="214.00" from="-150837322" to="-150837303#0" departLane="best" departSpeed="max" departPos="random" type="moto__motorcycle"/>
    <trip id="moto_31" depart="225.00" from="-70193388#0" to="-150921822#0" departLane="best" departSpeed="max" departPos="random" type="moto__motorcycle"/>
    <trip id="moto_32" depart="226.00" from="257571787" to="150837478#9" departLane="best" departSpeed="max" departPos="random" type="moto__motorcycle"/>
    <trip id="moto_33" depart="231.00" from="-150837238#1" to="480188362#2" departLane="best" departSpeed="max" departPos="random" type="moto__motorcycle"/>
    <trip id="moto_34" depart="237.00" from="-196125604" to="653736385#0" departLane="best" departSpeed="max" departPos="random" type="moto__motorcycle"/>
    <trip id="moto_35" depart="243.00" from="257846693#2" to="480188364#1" departLane="best" departSpeed="max" departPos="random" type="moto__motorcycle"/>
    <trip id="moto_36" depart="252.00" from="150921818#3" to="-378534333#0" departLane="best" departSpeed="max" departPos="random" type="moto__motorcycle"/>
    <trip id="moto_37" depart="259.00" from="479780488#6" to="479690295#1" departLane="best" departSpeed="max" departPos="random" type="moto__motorcycle"/>
    <trip id="moto_38" depart="266.00" from="-150837482#3" to="-259055473#4" departLane="best" departSpeed="max" departPos="random" type="moto__motorcycle"/>
    <trip id="moto_39" depart="275.00" from="941715210#5" to="-150837478#9" departLane="best" departSpeed="max" departPos="random" type="moto__motorcycle"/>
    <trip id="moto_40" depart="278.00" from="-70193392#0" to="150921818#1" departLane="best" departSpeed="max" departPos="random" type="moto__motorcycle"/>
    <trip id="moto_41" depart="286.00" from="690332512#7" to="150837246" departLane="best" departSpeed="max" departPos="random" type="moto__motorcycle"/>
    <trip id="moto_42" depart="291.00" from="150837499#4" to="-331243177" departLane="best" departSpeed="max" departPos="random" type="moto__motorcycle"/>
    <trip id="moto_43" depart="300.00" from="-70193383#1" to="70193388#0" departLane="best" departSpeed="max" departPos="random" type="moto__motorcycle"/>
    <trip id="moto_44" depart="306.00" from="-193107812#0" to="-70193391#2" departLane="best" departSpeed="max" departPos="random" type="moto__motorcycle"/>
    <trip id="moto_45" depart="316.00" from="150837198#0" to="150837478#6" departLane="best" departSpeed="max" departPos="random" type="moto__motorcycle"/>
    <trip id="moto_46" depart="323.00" from="-150921629#1" to="150813160#2" departLane="best" departSpeed="max" departPos="random" type="moto__motorcycle"/>
    <trip id="moto_47" depart="325.00" from="-690332512#8" to="150837478#3" departLane="best" departSpeed="max" departPos="random" type="moto__motorcycle"/>
    <trip id="moto_48" depart="331.00" from="193107835#0" to="196125606#0" departLane="best" departSpeed="max" departPos="random" type="moto__motorcycle"/>
    <trip id="moto_49" depart="332.00" from="-70193388#1" to="-150837478#7" departLane="best" departSpeed="max" departPos="random" type="moto__motorcycle"/>
    <trip id="moto_50" depart="335.00" from="-150921687#1" to="479690293#1" departLane="best" departSpeed="max" departPos="random" type="moto__motorcycle"/>
    <trip id="moto_51" depart="358.00" from="-150921822#5" to="-150921818#0" departLane="best" departSpeed="max" departPos="random" type="moto__motorcycle"/>
    <trip id="moto_52" depart="361.00" from="-150837528#6" to="150921480#0" departLane="best" departSpeed="max" departPos="random" type="moto__motorcycle"/>
    <trip id="moto_53" depart="363.00" from="-690332512#3" to="150837254#1" departLane="best" departSpeed="max" departPos="random" type="moto__motorcycle"/>
    <trip id="moto_54" depart="373.00" from="-479688999#2" to="193161028#1" departLane="best" departSpeed="max" departPos="random" type="moto__motorcycle"/>
    <trip id="moto_55" depart="383.00" from="-328868682" to="150837528#0" departLane="best" departSpeed="max" departPos="random" type="moto__motorcycle"/>
    <trip id="moto_56" depart="387.00" from="150837478#1" to="-150837077#6" departLane="best" departSpeed="max" departPos="random" type="moto__motorcycle"/>
    <trip id="moto_57" depart="390.00" from="150837479#3" to="-150837427#1" departLane="best" departSpeed="max" departPos="random" type="moto__motorcycle"/>
    <trip id="moto_58" depart="392.00" from="-480188362#2" to="-150837523#1" departLane="best" departSpeed="max" departPos="random" type="moto__motorcycle"/>
    <trip id="moto_59" depart="399.00" from="-150813160#0" to="150837246" departLane="best" departSpeed="max" departPos="random" type="moto__motorcycle"/>
    <trip id="moto_60" depart="408.00" from="-150837442#1" to="-150837389#1" departLane="best" departSpeed="max" departPos="random" type="moto__motorcycle"/>
    <trip id="moto_61" depart="417.00" from="479688999#2" to="941715210#1" departLane="best" departSpeed="max" departPos="random" type="moto__motorcycle"/>
    <trip id="moto_62" depart="418.00" from="-150837077#1" to="-257846693#0" departLane="best" departSpeed="max" departPos="random" type="moto__motorcycle"/>
    <trip id="moto_63" depart="423.00" from="150837528#6" to="150837478#13" departLane="best" departSpeed="max" departPos="random" type="moto__motorcycle"/>
    <trip id="moto_64" depart="424.00" from="257571789#0" to="479690293#3" departLane="best" departSpeed="max" departPos="random" type="moto__motorcycle"/>
    <trip id="moto_65" depart="426.00" from="E3" to="257846693#2" departLane="best" departSpeed="max" departPos="random" type="moto__motorcycle"/>
    <trip id="moto_66" depart="434.00" from="941459814#1" to="150837478#8" departLane="best" departSpeed="max" departPos="random" type="moto__motorcycle"/>
    <trip id="moto_67" depart="449.00" from="480188362#1" to="-150921661#1" departLane="best" departSpeed="max" departPos="random" type="moto__motorcycle"/>
    <trip id="moto_68" depart="453.00" from="479690293#4" to="-150837479#2" departLane="best" departSpeed="max" departPos="random" type="moto__motorcycle"/>
    <trip id="moto_69" depart="460.00" from="70193391#1" to="-150837268#1" departLane="best" departSpeed="max" departPos="random" type="moto__motorcycle"/>
    <trip id="moto_70" depart="468.00" from="-150837523#7" to="150921477#1" departLane="best" departSpeed="max" departPos="random" type="moto__motorcycle"/>
    <trip id="moto_71" depart="479.00" from="-150837482#2" to="-150837379#0" departLane="best" departSpeed="max" departPos="random" type="moto__motorcycle"/>
    <trip id="moto_72" depart="489.00" from="-150837482#3" to="-150837528#4" departLane="best" departSpeed="max" departPos="random" type="moto__motorcycle"/>
    <trip id="moto_73" depart="491.00" from="150837238#2" to="-150921818#2" departLane="best" departSpeed="max" departPos="random" type="moto__motorcycle"/>
    <trip id="moto_74" depart="495.00" from="479780488#2" to="150837129#1" departLane="best" departSpeed="max" departPos="random" type="moto__motorcycle"/>
    <trip id="moto_75" depart="501.00" from="70193388#1" to="150837077#0" departLane="best" departSpeed="max" departPos="random" type="moto__motorcycle"/>
    <trip id="moto_76" depart="504.00" from="150837478#2" to="-150837193#1" departLane="best" departSpeed="max" departPos="random" type="moto__motorcycle"/>
    <trip id="moto_77" depart="509.00" from="196125594" to="150837442#0" departLane="best" departSpeed="max" departPos="random" type="moto__motorcycle"/>
    <trip id="moto_78" depart="527.00" from="-150812841#1" to="-941715210#5" departLane="best" departSpeed="max" departPos="random" type="moto__motorcycle"/>
    <trip id="moto_79" depart="545.00" from="-150837478#1" to="-257571789#0" departLane="best" departSpeed="max" departPos="random" type="moto__motorcycle"/>
    <trip id="moto_80" depart="549.00" from="150837528#5" to="150921629#0" departLane="best" departSpeed="max" departPos="random" type="moto__motorcycle"/>
    <trip id="moto_81" depart="553.00" from="-150837147#0" to="-70193392#0" departLane="best" departSpeed="max" departPos="random" type="moto__motorcycle"/>
    <trip id="moto_82" depart="556.00" from="941715210#0" to="479690289#2" departLane="best" departSpeed="max" departPos="random" type="moto__motorcycle"/>
    <trip id="moto_83" depart="562.00" from="193638674" to="150812864#9" departLane="best" departSpeed="max" departPos="random" type="moto__motorcycle"/>
    <trip id="moto_84" depart="569.00" from="-479688692#1" to="-378534333#1" departLane="best" departSpeed="max" departPos="random" type="moto__motorcycle"/>
    <trip id="moto_85" depart="598.00" from="941745039#1" to="150837442#2" departLane="best" departSpeed="max" departPos="random" type="moto__motorcycle"/>
    <trip id="moto_86" depart="603.00" from="t_e" to="673765757#3" departLane="best" departSpeed="max" departPos="random" type="moto__motorcycle"/>
    <trip id="moto_87" depart="605.00" from="479690289#10" to="150837158" departLane="best" departSpeed="max" departPos="random" type="moto__motorcycle"/>
    <trip id="moto_88" depart="641.00" from="193107812#0" to="150921687#1" departLane="best" departSpeed="max" departPos="random" type="moto__motorcycle"/>
    <trip id="moto_89" depart="648.00" from="150837168" to="150837407#1" departLane="best" departSpeed="max" departPos="random" type="moto__motorcycle"/>
    <trip id="moto_90" depart="671.00" from="-150837203#0" to="150837478#5" departLane="best" departSpeed="max" departPos="random" type="moto__motorcycle"/>
    <trip id="moto_91" depart="676.00" from="150837478#5" to="479780488#6" departLane="best" departSpeed="max" departPos="random" type="moto__motorcycle"/>
    <trip id="moto_92" depart="680.00" from="331243177" to="-193107842" departLane="best" departSpeed="max" departPos="random" type="moto__motorcycle"/>
    <trip id="moto_93" depart="687.00" from="479780488#5" to="150837471#1" departLane="best" departSpeed="max" departPos="random" type="moto__motorcycle"/>
    <trip id="moto_94" depart="694.00" from="479687736#3" to="653736385#1" departLane="best" departSpeed="max" departPos="random" type="moto__motorcycle"/>
    <trip id="moto_95" depart="718.00" from="150837442#1" to="150837154" departLane="best" departSpeed="max" departPos="random" type="moto__motorcycle"/>
    <trip id="moto_96" depart="737.00" from="-193107835#2" to="193107835#0" departLane="best" departSpeed="max" departPos="random" type="moto__motorcycle"/>
    <trip id="moto_97" depart="739.00" from="150837238#6" to="941715210#5" departLane="best" departSpeed="max" departPos="random" type="moto__motorcycle"/>
    <trip id="moto_98" depart="749.00" from="941715210#0" to="-150837433#0" departLane="best" departSpeed="max" departPos="random" type="moto__motorcycle"/>
    <trip id="moto_99" depart="758.00" from="150837238#4" to="150812841#1" departLane="best" departSpeed="max" departPos="random" type="moto__motorcycle"/>
    <trip id="moto_100" depart="764.00" from="-150837528#7" to="-150837077#5" departLane="best" departSpeed="max" departPos="random" type="moto__motorcycle"/>
    <trip id="moto_101" depart="769.00" from="479690281#0" to="673765757#1" departLane="best" departSpeed="max" departPos="random" type="moto__motorcycle"/>
    <trip id="moto_102" depart="772.00" from="70193391#0" to="-193638677" departLane="best" departSpeed="max" departPos="random" type="moto__motorcycle"/>
    <trip id="moto_103" depart="774.00" from="537254108" to="-150837427#1" departLane="best" departSpeed="max" departPos="random" type="moto__motorcycle"/>
    <trip id="moto_104" depart="783.00" from="150837108#2" to="-690332512#7" departLane="best" departSpeed="max" departPos="random" type="moto__motorcycle"/>
    <trip id="moto_105" depart="785.00" from="-479780488#6" to="-941715210#0" departLane="best" departSpeed="max" departPos="random" type="moto__motorcycle"/>
    <trip id="moto_106" depart="788.00" from="150837528#3" to="150837268#1" departLane="best" departSpeed="max" departPos="random" type="moto__motorcycle"/>
    <trip id="moto_107" depart="793.00" from="479690293#2" to="150812841#1" departLane="best" departSpeed="max" departPos="random" type="moto__motorcycle"/>
    <trip id="moto_108" depart="797.00" from="257846693#7" to="-150921661#1" departLane="best" departSpeed="max" departPos="random" type="moto__motorcycle"/>
    <trip id="moto_109" depart="798.00" from="150837295#0" to="-150837220" departLane="best" departSpeed="max" departPos="random" type="moto__motorcycle"/>
    <trip id="moto_110" depart="806.00" from="479690295#1" to="-150837442#0" departLane="best" departSpeed="max" departPos="random" type="moto__motorcycle"/>
    <trip id="moto_111" depart="807.00" from="-150921687#2" to="-150837478#6" departLane="best" departSpeed="max" departPos="random" type="moto__motorcycle"/>
    <trip id="moto_112" depart="809.00" from="-150812864#8" to="257846693#7" departLane="best" departSpeed="max" departPos="random" type="moto__motorcycle"/>
    <trip id="moto_113" depart="813.00" from="150921822#3" to="150837203#1" departLane="best" departSpeed="max" departPos="random" type="moto__motorcycle"/>
    <trip id="moto_114" depart="818.00" from="150837172#0" to="70193388#4" departLane="best" departSpeed="max" departPos="random" type="moto__motorcycle"/>
    <trip id="moto_115" depart="819.00" from="257846693#4" to="479780488#1" departLane="best" departSpeed="max" departPos="random" type="moto__motorcycle"/>
    <trip id="moto_116" depart="823.00" from="150837077#1" to="-690332512#2" departLane="best" departSpeed="max" departPos="random" type="moto__motorcycle"/>
    <trip id="moto_117" depart="827.00" from="-150837238#5" to="150837442#1" departLane="best" departSpeed="max" departPos="random" type="moto__motorcycle"/>
    <trip id="moto_118" depart="828.00" from="-150921818#3" to="150837478#6" departLane="best" departSpeed="max" departPos="random" type="moto__motorcycle"/>
    <trip id="moto_119" depart="835.00" from="150921661#0" to="479690293#4" departLane="best" departSpeed="max" departPos="random" type="moto__motorcycle"/>
    <trip id="moto_120" depart="845.00" from="-70193388#2" to="150837499#8" departLane="best" departSpeed="max" departPos="random" type="moto__motorcycle"/>
    <trip id="moto_121" depart="849.00" from="479690289#10" to="-150837268#7" departLane="best" departSpeed="max" departPos="random" type="moto__motorcycle"/>
    <trip id="moto_122" depart="850.00" from="150921822#1" to="479688691#1" departLane="best" departSpeed="max" departPos="random" type="moto__motorcycle"/>
    <trip id="moto_123" depart="855.00" from="-479690293#0" to="150837499#8" departLane="best" departSpeed="max" departPos="random" type="moto__motorcycle"/>
    <trip id="moto_124" depart="866.00" from="479690293#0" to="-479780488#7" departLane="best" departSpeed="max" departPos="random" type="moto__motorcycle"/>
    <trip id="moto_125" depart="875.00" from="690332521#0" to="479690281#5" departLane="best" departSpeed="max" departPos="random" type="moto__motorcycle"/>
    <trip id="moto_126" depart="881.00" from="479780488#3" to="150837318#0" departLane="best" departSpeed="max" departPos="random" type="moto__motorcycle"/>
    <trip id="moto_127" depart="883.00" from="150837478#5" to="-150837108#0" departLane="best" departSpeed="max" departPos="random" type="moto__motorcycle"/>
    <trip id="moto_128" depart="892.00" from="-150837172#2" to="-150837471#0" departLane="best" departSpeed="max" departPos="random" type="moto__motorcycle"/>
    <trip id="moto_129" depart="901.00" from="-70193388#5" to="-150921822#4" departLane="best" departSpeed="max" departPos="random" type="moto__motorcycle"/>
    <trip id="moto_130" depart="905.00" from="-656052090" to="150837427#3" departLane="best" departSpeed="max" departPos="random" type="moto__motorcycle"/>
    <trip id="moto_131" depart="906.00" from="-193161031" to="-150837523#1" departLane="best" departSpeed="max" departPos="random" type="moto__motorcycle"/>
    <trip id="moto_132" depart="907.00" from="-150921708#1" to="-259055473#4" departLane="best" departSpeed="max" departPos="random" type="moto__motorcycle"/>
    <trip id="moto_133" depart="908.00" from="193107812#1" to="-150837478#7" departLane="best" departSpeed="max" departPos="random" type="moto__motorcycle"/>
    <trip id="moto_134" depart="914.00" from="479690302#1" to="-150837158" departLane="best" departSpeed="max" departPos="random" type="moto__motorcycle"/>
    <trip id="moto_135" depart="915.00" from="690332512#3" to="479690302#1" departLane="best" departSpeed="max" departPos="random" type="moto__motorcycle"/>
    <trip id="moto_136" depart="920.00" from="-150813160#1" to="-259055473#1" departLane="best" departSpeed="max" departPos="random" type="moto__motorcycle"/>
    <trip id="moto_137" depart="925.00" from="479690293#0" to="-150921661#1" departLane="best" departSpeed="max" departPos="random" type="moto__motorcycle"/>
    <trip id="moto_138" depart="934.00" from="150837193#0" to="666936287" departLane="best" departSpeed="max" departPos="random" type="moto__motorcycle"/>
    <trip id="moto_139" depart="958.00" from="-70193392#6" to="-193638676#2" departLane="best" departSpeed="max" departPos="random" type="moto__motorcycle"/>
    <trip id="moto_140" depart="960.00" from="150837191#0" to="-257571793#1" departLane="best" departSpeed="max" departPos="random" type="moto__motorcycle"/>
    <trip id="moto_141" depart="962.00" from="479690289#10" to="-150837238#5" departLane="best" departSpeed="max" departPos="random" type="moto__motorcycle"/>
    <trip id="moto_142" depart="977.00" from="-150837276#3" to="653736385#0" departLane="best" departSpeed="max" departPos="random" type="moto__motorcycle"/>
    <trip id="moto_143" depart="994.00" from="-150837268#6" to="150837528#0" departLane="best" departSpeed="max" departPos="random" type="moto__motorcycle"/>
    <trip id="moto_144" depart="1002.00" from="-479688953#1" to="941715210#3" departLane="best" departSpeed="max" departPos="random" type="moto__motorcycle"/>
    <trip id="moto_145" depart="1025.00" from="-150837238#2" to="479690292#1" departLane="best" departSpeed="max" departPos="random" type="moto__motorcycle"/>
    <trip id="moto_146" depart="1026.00" from="257571787" to="479690289#11" departLane="best" departSpeed="max" departPos="random" type="moto__motorcycle"/>
    <trip id="moto_147" depart="1028.00" from="-328868682" to="196125603" departLane="best" departSpeed="max" departPos="random" type="moto__motorcycle"/>
    <trip id="moto_148" depart="1029.00" from="-480188362#1" to="-150837478#1" departLane="best" departSpeed="max" departPos="random" type="moto__motorcycle"/>
    <trip id="moto_149" depart="1057.00" from="-150921687#2" to="150837479#3" departLane="best" departSpeed="max" departPos="random" type="moto__motorcycle"/>
    <trip id="moto_150" depart="1060.00" from="479690293#1" to="479690293#3" departLane="best" departSpeed="max" departPos="random" type="moto__motorcycle"/>
    <trip id="moto_151" depart="1071.00" from="-150837191#0" to="150837172#0" departLane="best" departSpeed="max" departPos="random" type="moto__motorcycle"/>
    <trip id="moto_152" depart="1075.00" from="690332521#1" to="479690289#4" departLane="best" departSpeed="max" departPos="random" type="moto__motorcycle"/>
    <trip id="moto_153" depart="1078.00" from="-193107812#0" to="479690281#5" departLane="best" departSpeed="max" departPos="random" type="moto__motorcycle"/>
    <trip id="moto_154" depart="1080.00" from="150921687#0" to="-941715210#4" departLane="best" departSpeed="max" departPos="random" type="moto__motorcycle"/>
    <trip id="moto_155" depart="1081.00" from="-150837238#4" to="-150921708#2" departLane="best" departSpeed="max" departPos="random" type="moto__motorcycle"/>
    <trip id="moto_156" depart="1086.00" from="-193107812#0" to="-193638676#1" departLane="best" departSpeed="max" departPos="random" type="moto__motorcycle"/>
    <trip id="moto_157" depart="1087.00" from="-70193383#1" to="259055473#2" departLane="best" departSpeed="max" departPos="random" type="moto__motorcycle"/>
    <trip id="moto_158" depart="1089.00" from="662969525" to="150837427#1" departLane="best" departSpeed="max" departPos="random" type="moto__motorcycle"/>
    <trip id="moto_159" depart="1090.00" from="150837198#0" to="-150921661#0" departLane="best" departSpeed="max" departPos="random" type="moto__motorcycle"/>
    <trip id="moto_160" depart="1097.00" from="941745039#2" to="-150837220" departLane="best" departSpeed="max" departPos="random" type="moto__motorcycle"/>
    <trip id="moto_161" depart="1107.00" from="259055473#0" to="-479688999#1" departLane="best" departSpeed="max" departPos="random" type="moto__motorcycle"/>
    <trip id="moto_162" depart="1113.00" from="150837268#1" to="479688691#2" departLane="best" departSpeed="max" departPos="random" type="moto__motorcycle"/>
    <trip id="moto_163" depart="1120.00" from="257571793#1" to="150812864#10" departLane="best" departSpeed="max" departPos="random" type="moto__motorcycle"/>
    <trip id="moto_164" depart="1122.00" from="-150837497#0" to="-150837158" departLane="best" departSpeed="max" departPos="random" type="moto__motorcycle"/>
    <trip id="moto_165" depart="1134.00" from="-479780488#5" to="601770472#1" departLane="best" departSpeed="max" departPos="random" type="moto__motorcycle"/>
    <trip id="moto_166" depart="1145.00" from="150837433#1" to="479690025#0" departLane="best" departSpeed="max" departPos="random" type="moto__motorcycle"/>
    <trip id="moto_167" depart="1148.00" from="150837499#1" to="-257571787" departLane="best" departSpeed="max" departPos="random" type="moto__motorcycle"/>
    <trip id="moto_168" depart="1153.00" from="479780488#3" to="-479690293#3" departLane="best" departSpeed="max" departPos="random" type="moto__motorcycle"/>
    <trip id="moto_169" depart="1158.00" from="150837478#8" to="-479780488#5" departLane="best" departSpeed="max" departPos="random" type="moto__motorcycle"/>
    <trip id="moto_170" depart="1162.00" from="150837442#2" to="257846693#1" departLane="best" departSpeed="max" departPos="random" type="moto__motorcycle"/>
    <trip id="moto_171" depart="1163.00" from="-150837200#0" to="257571793#0" departLane="best" departSpeed="max" departPos="random" type="moto__motorcycle"/>
    <trip id="moto_172" depart="1177.00" from="150921818#3" to="150837165" departLane="best" departSpeed="max" departPos="random" type="moto__motorcycle"/>
    <trip id="moto_173" depart="1187.00" from="479690293#5" to="150812782" departLane="best" departSpeed="max" departPos="random" type="moto__motorcycle"/>
    <trip id="moto_174" depart="1190.00" from="150837528#0" to="479690292#1" departLane="best" departSpeed="max" departPos="random" type="moto__motorcycle"/>
    <trip id="moto_175" depart="1193.00" from="150837254#0" to="601770472#3" departLane="best" departSpeed="max" departPos="random" type="moto__motorcycle"/>
    <trip id="moto_176" depart="1200.00" from="-150837497#1" to="-150837427#3" departLane="best" departSpeed="max" departPos="random" type="moto__motorcycle"/>
    <trip id="moto_177" depart="1202.00" from="150837268#7" to="-479780488#8" departLane="best" departSpeed="max" departPos="random" type="moto__motorcycle"/>
    <trip id="moto_178" depart="1206.00" from="-196125606#0" to="west" departLane="best" departSpeed="max" departPos="random" type="moto__motorcycle"/>
    <trip id="moto_179" depart="1211.00" from="941745039#1" to="150837479#3" departLane="best" departSpeed="max" departPos="random" type="moto__motorcycle"/>
    <trip id="moto_180" depart="1222.00" from="-150837379#1" to="-150837453#1" departLane="best" departSpeed="max" departPos="random" type="moto__motorcycle"/>
    <trip id="moto_181" depart="1233.00" from="-193638674" to="150837238#2" departLane="best" departSpeed="max" departPos="random" type="moto__motorcycle"/>
    <trip id="moto_182" depart="1244.00" from="-150837158" to="150837479#3" departLane="best" departSpeed="max" departPos="random" type="moto__motorcycle"/>
    <trip id="moto_183" depart="1258.00" from="-150837195#0" to="-70193392#6" departLane="best" departSpeed="max" departPos="random" type="moto__motorcycle"/>
    <trip id="moto_184" depart="1267.00" from="-479780488#6" to="150837295#0" departLane="best" departSpeed="max" departPos="random" type="moto__motorcycle"/>
    <trip id="moto_185" depart="1272.00" from="-193107812#2" to="-601770472#3" departLane="best" departSpeed="max" departPos="random" type="moto__motorcycle"/>