<?xml version="1.0" encoding="UTF-8"?>

<!-- generated on 2024-01-11 19:49:19.974300 by randomTrips.py v1_19_0+0000-baa66a0f364
<configuration>
    <net-file value="osm.net.xml"/>
    <additional-files value="osm.add.xml"/>
    <output-trip-file value="osm.bus.trips.xml"/>
    <prefix value="bus_"/>
    <trip-attributes value="guiShape=&quot;bus&quot;  departLane=&quot;best&quot; departSpeed=&quot;max&quot; departPos=&quot;random&quot;"/>
    <vehicle-class value="bus"/>
    <end value="40000.0"/>
    <period value="20.0"/>
    <binomial value="10"/>
</configuration>
-->

<routes xmlns:xsi="http://www.w3.org/2001/XMLSchema-instance" xsi:noNamespaceSchemaLocation="http://sumo.dlr.de/xsd/routes_file.xsd">
    <vType id="bus__bus" vClass="bus" guiShape="bus"/>
    <trip id="bus_0" depart="12.00" from="-257846693#3" to="-150837077#0" departLane="best" departSpeed="max" departPos="random" type="bus__bus"/>
    <trip id="bus_1" depart="28.00" from="257571787" to="150837478#9" departLane="best" departSpeed="max" departPos="random" type="bus__bus"/>
    <trip id="bus_2" depart="36.00" from="690332512#7" to="150837246" departLane="best" departSpeed="max" departPos="random" type="bus__bus"/>
    <trip id="bus_3" depart="38.00" from="-193107812#0" to="-70193391#2" departLane="best" departSpeed="max" departPos="random" type="bus__bus"/>
    <trip id="bus_4" depart="67.00" from="-941715210#2" to="150837426" departLane="best" departSpeed="max" departPos="random" type="bus__bus"/>
    <trip id="bus_5" depart="101.00" from="479690295#1" to="-150837442#0" departLane="best" departSpeed="max" departPos="random" type="bus__bus"/>
    <trip id="bus_6" depart="194.00" from="-150813160#2" to="-193638674" departLane="best" departSpeed="max" departPos="random" type="bus__bus"/>
    <trip id="bus_7" depart="250.00" from="257571793#0" to="150921818#4" departLane="best" departSpeed="max" departPos="random" type="bus__bus"/>
    <trip id="bus_8" depart="252.00" from="70193392#6" to="-150837499#3" departLane="best" departSpeed="max" departPos="random" type="bus__bus"/>
    <trip id="bus_9" depart="254.00" from="150837077#0" to="-150837407#2" departLane="best" departSpeed="max" departPos="random" type="bus__bus"/>
    <trip id="bus_10" depart="273.00" from="150837497#0" to="479690293#2" departLane="best" departSpeed="max" departPos="random" type="bus__bus"/>
    <trip id="bus_11" depart="290.00" from="673765757#8" to="-150837499#1" departLane="best" departSpeed="max" departPos="random" type="bus__bus"/>
    <trip id="bus_12" depart="296.00" from="-601770472#2" to="150921818#4" departLane="best" departSpeed="max" departPos="random" type="bus__bus"/>
    <trip id="bus_13" depart="328.00" from="-150921818#1" to="193638676#2" departLane="best" departSpeed="max" departPos="random" type="bus__bus"/>
    <trip id="bus_14" depart="337.00" from="150837523#1" to="666936287" departLane="best" departSpeed="max" departPos="random" type="bus__bus"/>
    <trip id="bus_15" depart="348.00" from="-150837268#2" to="150837433#2" departLane="best" departSpeed="max" departPos="random" type="bus__bus"/>
    <trip id="bus_16" depart="381.00" from="-150921661#0" to="-150837528#0" departLane="best" departSpeed="max" departPos="random" type="bus__bus"/>
    <trip id="bus_17" depart="406.00" from="-150837453#0" to="t_w" departLane="best" departSpeed="max" departPos="random" type="bus__bus"/>
    <trip id="bus_18" depart="431.00" from="479688953#1" to="479690293#1" departLane="best" departSpeed="max" departPos="random" type="bus__bus"/>
    <trip id="bus_19" depart="445.00" from="150837478#8" to="-537254108" departLane="best" departSpeed="max" departPos="random" type="bus__bus"/>
    <trip id="bus_20" depart="496.00" from="-150837077#0" to="150837478#12" departLane="best" departSpeed="max" departPos="random" type="bus__bus"/>
    <trip id="bus_21" depart="506.00" from="70192998#1" to="150837528#6" departLane="best" departSpeed="max" departPos="random" type="bus__bus"/>
    <trip id="bus_22" depart="518.00" from="-150837433#1" to="-150837443" departLane="best" departSpeed="max" departPos="random" type="bus__bus"/>
    <trip id="bus_23" depart="545.00" from="70193392#2" to="479688953#1" departLane="best" departSpeed="max" departPos="random" type="bus__bus"/>
    <trip id="bus_24" depart="557.00" from="-150921477#1" to="-150837347#1" departLane="best" departSpeed="max" departPos="random" type="bus__bus"/>
    <trip id="bus_25" depart="582.00" from="150921822#1" to="941745039#3" departLane="best" departSpeed="max" departPos="random" type="bus__bus"/>
    <trip id="bus_26" depart="591.00" from="-150921753#1" to="70193392#4" departLane="best" departSpeed="max" departPos="random" type="bus__bus"/>
    <trip id="bus_27" depart="712.00" from="150812864#2" to="479690281#4" departLane="best" departSpeed="max" departPos="random" type="bus__bus"/>
    <trip id="bus_28" depart="712.00" from="70193383#0" to="150837077#3" departLane="best" departSpeed="max" departPos="random" type="bus__bus"/>
    <trip id="bus_29" depart="715.00" from="150837077#0" to="653736385#1" departLane="best" departSpeed="max" departPos="random" type="bus__bus"/>
    <trip id="bus_30" depart="735.00" from="-150837528#0" to="-150837528#6" departLane="best" departSpeed="max" departPos="random" type="bus__bus"/>
    <trip id="bus_31" depart="768.00" from="257571789#0" to="196125603" departLane="best" departSpeed="max" departPos="random" type="bus__bus"/>
    <trip id="bus_32" depart="791.00" from="-150837203#1" to="150921513" departLane="best" departSpeed="max" departPos="random" type="bus__bus"/>
    <trip id="bus_33" depart="807.00" from="-150837198#2" to="150837238#5" departLane="best" departSpeed="max" departPos="random" type="bus__bus"/>
    <trip id="bus_34" depart="824.00" from="-193161031" to="70193388#5" departLane="best" departSpeed="max" departPos="random" type="bus__bus"/>
    <trip id="bus_35" depart="863.00" from="-479688692#1" to="150837436" departLane="best" departSpeed="max" departPos="random" type="bus__bus"/>
    <trip id="bus_36" depart="876.00" from="70193383#0" to="-150837443" departLane="best" departSpeed="max" departPos="random" type="bus__bus"/>
    <trip id="bus_37" depart="880.00" from="t_n" to="-150813160#0" departLane="best" departSpeed="max" departPos="random" type="bus__bus"/>
    <trip id="bus_38" depart="908.00" from="-941715210#2" to="479690289#10" departLane="best" departSpeed="max" departPos="random" type="bus__bus"/>
    <trip id="bus_39" depart="963.00" from="-150921687#2" to="-479690293#2" departLane="best" departSpeed="max" departPos="random" type="bus__bus"/>
    <trip id="bus_40" depart="972.00" from="150837433#2" to="-150837379#1" departLane="best" departSpeed="max" departPos="random" type="bus__bus"/>
    <trip id="bus_41" depart="1036.00" from="-150837200#0" to="150837276#2" departLane="best" departSpeed="max" departPos="random" type="bus__bus"/>
    <trip id="bus_42" depart="1075.00" from="-150921818#2" to="-479690293#2" departLane="best" departSpeed="max" departPos="random" type="bus__bus"/>
    <trip id="bus_43" depart="1087.00" from="-150837433#2" to="480188362#2" departLane="best" departSpeed="max" departPos="random" type="bus__bus"/>
    <trip id="bus_44" depart="1135.00" from="193161028#1" to="150837433#0" departLane="best" departSpeed="max" departPos="random" type="bus__bus"/>
    <trip id="bus_45" depart="1180.00" from="-150921687#2" to="150837268#9" departLane="best" departSpeed="max" departPos="random" type="bus__bus"/>
    <trip id="bus_46" depart="1213.00" from="-601770472#1" to="-150837077#6" departLane="best" departSpeed="max" departPos="random" type="bus__bus"/>
    <trip id="bus_47" depart="1225.00" from="-150921513" to="479688691#2" departLane="best" departSpeed="max" departPos="random" type="bus__bus"/>
    <trip id="bus_48" depart="1261.00" from="259055473#2" to="-150921477#0" departLane="best" departSpeed="max" departPos="random" type="bus__bus"/>
    <trip id="bus_49" depart="1297.00" from="-150837077#6" to="-150837191#1" departLane="best" departSpeed="max" departPos="random" type="bus__bus"/>
    <trip id="bus_50" depart="1297.00" from="-941459814#1" to="150921818#1" departLane="best" departSpeed="max" departPos="random" type="bus__bus"/>
    <trip id="bus_51" depart="1311.00" from="259055473#3" to="150837172#2" departLane="best" departSpeed="max" departPos="random" type="bus__bus"/>
    <trip id="bus_52" depart="1339.00" from="-150837482#0" to="70193383#0" departLane="best" departSpeed="max" departPos="random" type="bus__bus"/>
    <trip id="bus_53" depart="1358.00" from="150812841#2" to="331243177" departLane="best" departSpeed="max" departPos="random" type="bus__bus"/>
    <trip id="bus_54" depart="1370.00" from="-150837200#0" to="479690299" departLane="best" departSpeed="max" departPos="random" type="bus__bus"/>
    <trip id="bus_55" depart="1379.00" from="-150837478#6" to="-150837407#2" departLane="best" departSpeed="max" departPos="random" type="bus__bus"/>
    <trip id="bus_56" depart="1390.00" from="150837077#5" to="479690025#1" departLane="best" departSpeed="max" departPos="random" type="bus__bus"/>
    <trip id="bus_57" depart="1399.00" from="-150921480#1" to="257571793#0" departLane="best" departSpeed="max" departPos="random" type="bus__bus"/>
    <trip id="bus_58" depart="1405.00" from="-479690293#1" to="e_t" departLane="best" departSpeed="max" departPos="random" type="bus__bus"/>
    <trip id="bus_59" depart="1427.00" from="70193392#6" to="-259055473#3" departLane="best" departSpeed="max" departPos="random" type="bus__bus"/>
    <trip id="bus_60" depart="1428.00" from="-150837482#3" to="-150837314" departLane="best" departSpeed="max" departPos="random" type="bus__bus"/>
    <trip id="bus_61" depart="1435.00" from="150921480#1" to="70193383#0" departLane="best" departSpeed="max" departPos="random" type="bus__bus"/>
    <trip id="bus_62" depart="1451.00" from="-150921753#0" to="-150921687#1" departLane="best" departSpeed="max" departPos="random" type="bus__bus"/>
    <trip id="bus_63" depart="1455.00" from="150837478#11" to="-150921720#0" departLane="best" departSpeed="max" departPos="random" type="bus__bus"/>
    <trip id="bus_64" depart="1470.00" from="150837478#0" to="-150837523#3" departLane="best" departSpeed="max" departPos="random" type="bus__bus"/>
    <trip id="bus_65" depart="1488.00" from="-479688691#2" to="-690332512#7" departLane="best" departSpeed="max" departPos="random" type="bus__bus"/>
    <trip id="bus_66" depart="1493.00" from="150837499#8" to="150837195#1" departLane="best" departSpeed="max" departPos="random" type="bus__bus"/>
    <trip id="bus_67" depart="1510.00" from="150837246" to="-150837268#0" departLane="best" departSpeed="max" departPos="random" type="bus__bus"/>
    <trip id="bus_68" depart="1519.00" from="150837479#3" to="150837528#2" departLane="best" departSpeed="max" departPos="random" type="bus__bus"/>
    <trip id="bus_69" depart="1561.00" from="-690332521#0" to="150812864#9" departLane="best" departSpeed="max" departPos="random" type="bus__bus"/>
    <trip id="bus_70" depart="1585.00" from="-150921687#1" to="w_t" departLane="best" departSpeed="max" departPos="random" type="bus__bus"/>
    <trip id="bus_71" depart="1683.00" from="-150837246" to="-150837427#0" departLane="best" departSpeed="max" departPos="random" type="bus__bus"/>
    <trip id="bus_72" depart="1688.00" from="-479688692#1" to="70193383#3" departLane="best" departSpeed="max" departPos="random" type="bus__bus"/>
    <trip id="bus_73" depart="1693.00" from="150837129#0" to="-513603326#0" departLane="best" departSpeed="max" departPos="random" type="bus__bus"/>
    <trip id="bus_74" depart="1701.00" from="-941459814#1" to="-150837268#4" departLane="best" departSpeed="max" departPos="random" type="bus__bus"/>
    <trip id="bus_75" depart="1744.00" from="-479780488#1" to="150813160#1" departLane="best" departSpeed="max" departPos="random" type="bus__bus"/>
    <trip id="bus_76" depart="1758.00" from="-150837426" to="-150921708#0" departLane="best" departSpeed="max" departPos="random" type="bus__bus"/>
    <trip id="bus_77" depart="1765.00" from="-70193383#3" to="150837295#0" departLane="best" departSpeed="max" departPos="random" type="bus__bus"/>
    <trip id="bus_78" depart="1803.00" from="150837238#6" to="-150837482#7" departLane="best" departSpeed="max" departPos="random" type="bus__bus"/>
    <trip id="bus_79" depart="1815.00" from="259055473#4" to="-150837478#8" departLane="best" departSpeed="max" departPos="random" type="bus__bus"/>
    <trip id="bus_80" depart="1821.00" from="-150812864#10" to="70193383#1" departLane="best" departSpeed="max" departPos="random" type="bus__bus"/>
    <trip id="bus_81" depart="1821.00" from="150837478#3" to="-259055473#3" departLane="best" departSpeed="max" departPos="random" type="bus__bus"/>
    <trip id="bus_82" depart="1840.00" from="479780488#9" to="150837347#0" departLane="best" departSpeed="max" departPos="random" type="bus__bus"/>
    <trip id="bus_83" depart="1884.00" from="673765757#5" to="-193107843" departLane="best" departSpeed="max" departPos="random" type="bus__bus"/>
    <trip id="bus_84" depart="1889.00" from="-150837478#3" to="150837172#2" departLane="best" departSpeed="max" departPos="random" type="bus__bus"/>
    <trip id="bus_85" depart="1919.00" from="-150837499#7" to="-150837523#6" departLane="best" departSpeed="max" departPos="random" type="bus__bus"/>
    <trip id="bus_86" depart="1920.00" from="150837198#0" to="150837322" departLane="best" departSpeed="max" departPos="random" type="bus__bus"/>
    <trip id="bus_87" depart="1946.00" from="150837499#8" to="-150921477#0" departLane="best" departSpeed="max" departPos="random" type="bus__bus"/>
    <trip id="bus_88" depart="1950.00" from="70193391#0" to="150837154" departLane="best" departSpeed="max" departPos="random" type="bus__bus"/>
    <trip id="bus_89" depart="1956.00" from="-150837426" to="150812864#8" departLane="best" departSpeed="max" departPos="random" type="bus__bus"/>
    <trip id="bus_90" depart="1963.00" from="690332512#8" to="-150837523#5" departLane="best" departSpeed="max" departPos="random" type="bus__bus"/>
    <trip id="bus_91" depart="1995.00" from="193107812#2" to="t_n" departLane="best" departSpeed="max" departPos="random" type="bus__bus"/>
    <trip id="bus_92" depart="2033.00" from="-378534333#0" to="150837168" departLane="best" departSpeed="max" departPos="random" type="bus__bus"/>
    <trip id="bus_93" depart="2052.00" from="-150921720#1" to="150837442#0" departLane="best" departSpeed="max" departPos="random" type="bus__bus"/>
    <trip id="bus_94" depart="2055.00" from="70193388#0" to="257571787" departLane="best" departSpeed="max" departPos="random" type="bus__bus"/>
    <trip id="bus_95" depart="2065.00" from="673765757#8" to="-193107842" departLane="best" departSpeed="max" departPos="random" type="bus__bus"/>
    <trip id="bus_96" depart="2087.00" from="-150921818#0" to="-70193392#0" departLane="best" departSpeed="max" departPos="random" type="bus__bus"/>
    <trip id="bus_97" depart="2090.00" from="-479688692#0" to="150921822#5" departLane="best" departSpeed="max" departPos="random" type="bus__bus"/>
    <trip id="bus_98" depart="2116.00" from="-70193392#6" to="150837528#0" departLane="best" departSpeed="max" departPos="random" type="bus__bus"/>
    <trip id="bus_99" depart="2129.00" from="479690289#10" to="257846693#6" departLane="best" departSpeed="max" departPos="random" type="bus__bus"/>
    <trip id="bus_100" depart="2131.00" from="150837276#0" to="-150837193#0" departLane="best" departSpeed="max" departPos="random" type="bus__bus"/>
    <trip id="bus_101" depart="2146.00" from="150837478#0" to="673765757#8" departLane="best" departSpeed="max" departPos="random" type="bus__bus"/>
    <trip id="bus_102" depart="2161.00" from="150837199#1" to="150921787#1" departLane="best" departSpeed="max" departPos="random" type="bus__bus"/>
    <trip id="bus_103" depart="2197.00" from="w_t" to="193107812#2" departLane="best" departSpeed="max" departPos="random" type="bus__bus"/>
    <trip id="bus_104" depart="2205.00" from="150812864#6" to="-150921661#0" departLane="best" departSpeed="max" departPos="random" type="bus__bus"/>
    <trip id="bus_105" depart="2211.00" from="479690306#0" to="479688999#2" departLane="best" departSpeed="max" departPos="random" type="bus__bus"/>
    <trip id="bus_106" depart="2219.00" from="-150921756#0" to="150837195#0" departLane="best" departSpeed="max" departPos="random" type="bus__bus"/>
    <trip id="bus_107" depart="2230.00" from="-150837268#6" to="150837238#5" departLane="best" departSpeed="max" departPos="random" type="bus__bus"/>
    <trip id="bus_108" depart="2245.00" from="941745039#0" to="150837200#0" departLane="best" departSpeed="max" departPos="random" type="bus__bus"/>
    <trip id="bus_109" depart="2257.00" from="150837478#8" to="479688691#1" departLane="best" departSpeed="max" departPos="random" type="bus__bus"/>
    <trip id="bus_110" depart="2274.00" from="-150837077#6" to="-150837246" departLane="best" departSpeed="max" departPos="random" type="bus__bus"/>
    <trip id="bus_111" depart="2280.00" from="-150837523#7" to="-150837389#1" departLane="best" departSpeed="max" departPos="random" type="bus__bus"/>
    <trip id="bus_112" depart="2282.00" from="150837482#0" to="-150837479#3" departLane="best" departSpeed="max" departPos="random" type="bus__bus"/>
    <trip id="bus_113" depart="2307.00" from="-150837200#0" to="-150837427#3" departLane="best" departSpeed="max" departPos="random" type="bus__bus"/>
    <trip id="bus_114" depart="2312.00" from="-150837303#0" to="-378534333#0" departLane="best" departSpeed="max" departPos="random" type="bus__bus"/>
    <trip id="bus_115" depart="2340.00" from="479688691#2" to="150837528#7" departLane="best" departSpeed="max" departPos="random" type="bus__bus"/>
    <trip id="bus_116" depart="2344.00" from="70193388#1" to="479690293#5" departLane="best" departSpeed="max" departPos="random" type="bus__bus"/>
    <trip id="bus_117" depart="2348.00" from="-479688692#1" to="150921753#1" departLane="best" departSpeed="max" departPos="random" type="bus__bus"/>
    <trip id="bus_118" depart="2355.00" from="-193107835#0" to="150837389#0" departLane="best" departSpeed="max" departPos="random" type="bus__bus"/>
    <trip id="bus_119" depart="2370.00" from="150837191#1" to="150837442#2" departLane="best" departSpeed="max" departPos="random" type="bus__bus"/>
    <trip id="bus_120" depart="2375.00" from="150837276#3" to="-150837077#7" departLane="best" departSpeed="max" departPos="random" type="bus__bus"/>
    <trip id="bus_121" depart="2376.00" from="t_e" to="-150837077#2" departLane="best" departSpeed="max" departPos="random" type="bus__bus"/>
    <trip id="bus_122" depart="2395.00" from="150837479#3" to="-479688999#2" departLane="best" departSpeed="max" departPos="random" type="bus__bus"/>
    <trip id="bus_123" depart="2447.00" from="-70193388#0" to="-150837478#8" departLane="best" departSpeed="max" departPos="random" type="bus__bus"/>
    <trip id="bus_124" depart="2453.00" from="193638677" to="328868682" departLane="best" departSpeed="max" departPos="random" type="bus__bus"/>
    <trip id="bus_125" depart="2465.00" from="-193107835#1" to="690332512#2" departLane="best" departSpeed="max" departPos="random" type="bus__bus"/>
    <trip id="bus_126" depart="2483.00" from="-150837478#8" to="150921661#1" departLane="best" departSpeed="max" departPos="random" type="bus__bus"/>
    <trip id="bus_127" depart="2578.00" from="-150837478#3" to="-70193388#2" departLane="best" departSpeed="max" departPos="random" type="bus__bus"/>
    <trip id="bus_128" depart="2584.00" from="-150837268#4" to="-656052107" departLane="best" departSpeed="max" departPos="random" type="bus__bus"/>
    <trip id="bus_129" depart="2610.00" from="150921721#1" to="150837108#2" departLane="best" departSpeed="max" departPos="random" type="bus__bus"/>
    <trip id="bus_130" depart="2617.00" from="-150921787#1" to="150837482#2" departLane="best" departSpeed="max" departPos="random" type="bus__bus"/>
    <trip id="bus_131" depart="2648.00" from="-70193392#1" to="-150837238#1" departLane="best" departSpeed="max" departPos="random" type="bus__bus"/>
    <trip id="bus_132" depart="2654.00" from="150837478#9" to="150837268#8" departLane="best" departSpeed="max" departPos="random" type="bus__bus"/>
    <trip id="bus_133" depart="2679.00" from="-196125607" to="-150837147#1" departLane="best" departSpeed="max" departPos="random" type="bus__bus"/>
    <trip id="bus_134" depart="2680.00" from="193107812#0" to="259055473#1" departLane="best" departSpeed="max" departPos="random" type="bus__bus"/>
    <trip id="bus_135" depart="2683.00" from="70193388#2" to="-150921687#1" departLane="best" departSpeed="max" departPos="random" type="bus__bus"/>
    <trip id="bus_136" depart="2701.00" from="479780488#7" to="150837427#3" departLane="best" departSpeed="max" departPos="random" type="bus__bus"/>
    <trip id="bus_137" depart="2730.00" from="662969525" to="150837523#2" departLane="best" departSpeed="max" departPos="random" type="bus__bus"/>
    <trip id="bus_138" depart="2734.00" from="-150837396#0" to="-150837268#9" departLane="best" departSpeed="max" departPos="random" type="bus__bus"/>
    <trip id="bus_139" depart="2752.00" from="-150921480#0" to="150837396#1" departLane="best" departSpeed="max" departPos="random" type="bus__bus"/>
    <trip id="bus_140" depart="2759.00" from="150837191#1" to="-150837523#6" departLane="best" departSpeed="max" departPos="random" type="bus__bus"/>
    <trip id="bus_141" depart="2767.00" from="-150921708#2" to="-479780488#9" departLane="best" departSpeed="max" departPos="random" type="bus__bus"/>
    <trip id="bus_142" depart="2784.00" from="-150837482#5" to="150837147#0" departLane="best" departSpeed="max" departPos="random" type="bus__bus"/>
    <trip id="bus_143" depart="2788.00" from="150837195#1" to="150921787#1" departLane="best" departSpeed="max" departPos="random" type="bus__bus"/>
    <trip id="bus_144" depart="2790.00" from="150837523#4" to="-150837191#1" departLane="best" departSpeed="max" departPos="random" type="bus__bus"/>
    <trip id="bus_145" depart="2797.00" from="150837222" to="-479688999#0" departLane="best" departSpeed="max" departPos="random" type="bus__bus"/>
    <trip id="bus_146" depart="2806.00" from="-150837478#3" to="-150921687#2" departLane="best" departSpeed="max" departPos="random" type="bus__bus"/>
    <trip id="bus_147" depart="2895.00" from="150921787#0" to="-150837379#1" departLane="best" departSpeed="max" departPos="random" type="bus__bus"/>
    <trip id="bus_148" depart="2926.00" from="150837203#1" to="-150837479#4" departLane="best" departSpeed="max" departPos="random" type="bus__bus"/>
    <trip id="bus_149" depart="2943.00" from="-193161028#1" to="378534333#1" departLane="best" departSpeed="max" departPos="random" type="bus__bus"/>
    <trip id="bus_150" depart="2947.00" from="479688953#1" to="150837198#1" departLane="best" departSpeed="max" departPos="random" type="bus__bus"/>
    <trip id="bus_151" depart="2947.00" from="479690302#2" to="-150837478#12" departLane="best" departSpeed="max" departPos="random" type="bus__bus"/>
    <trip id="bus_152" depart="2998.00" from="941715210#3" to="-513603326#0" departLane="best" departSpeed="max" departPos="random" type="bus__bus"/>
    <trip id="bus_153" depart="3018.00" from="941715210#3" to="-70193388#4" departLane="best" departSpeed="max" departPos="random" type="bus__bus"/>
    <trip id="bus_154" depart="3028.00" from="480079864" to="-150837523#6" departLane="best" departSpeed="max" departPos="random" type="bus__bus"/>
    <trip id="bus_155" depart="3047.00" from="-150921629#1" to="-941459814#0" departLane="best" departSpeed="max" departPos="random" type="bus__bus"/>
    <trip id="bus_156" depart="3074.00" from="150837499#8" to="-150921480#1" departLane="best" departSpeed="max" departPos="random" type="bus__bus"/>
    <trip id="bus_157" depart="3086.00" from="513603326#0" to="-479688691#2" departLane="best" departSpeed="max" departPos="random" type="bus__bus"/>
    <trip id="bus_158" depart="3092.00" from="-150837147#0" to="941745039#8" departLane="best" departSpeed="max" departPos="random" type="bus__bus"/>
    <trip id="bus_159" depart="3102.00" from="150812864#10" to="-150837238#4" departLane="best" departSpeed="max" departPos="random" type="bus__bus"/>
    <trip id="bus_160" depart="3108.00" from="479688999#2" to="653736385#0" departLane="best" departSpeed="max" departPos="random" type="bus__bus"/>
    <trip id="bus_161" depart="3140.00" from="479690293#4" to="331243177" departLane="best" departSpeed="max" departPos="random" type="bus__bus"/>
    <trip id="bus_162" depart="3145.00" from="479690289#3" to="-150837254#1" departLane="best" departSpeed="max" departPos="random" type="bus__bus"/>
    <trip id="bus_163" depart="3171.00" from="150837077#2" to="-150812864#2" departLane="best" departSpeed="max" departPos="random" type="bus__bus"/>
    <trip id="bus_164" depart="3244.00" from="-150837193#1" to="-150837444" departLane="best" departSpeed="max" departPos="random" type="bus__bus"/>
    <trip id="bus_165" depart="3247.00" from="150837442#0" to="70193383#4" departLane="best" departSpeed="max" departPos="random" type="bus__bus"/>
    <trip id="bus_166" depart="3263.00" from="479780488#6" to="673765757#7" departLane="best" departSpeed="max" departPos="random" type="bus__bus"/>
    <trip id="bus_167" depart="3290.00" from="150837482#7" to="690332521#0" departLane="best" departSpeed="max" departPos="random" type="bus__bus"/>
    <trip id="bus_168" depart="3297.00" from="690332512#8" to="-150837499#3" departLane="best" departSpeed="max" departPos="random" type="bus__bus"/>
    <trip id="bus_169" depart="3306.00" from="-150921818#3" to="-150921698" departLane="best" departSpeed="max" departPos="random" type="bus__bus"/>
    <trip id="bus_170" depart="3323.00" from="941715210#4" to="150837478#6" departLane="best" departSpeed="max" departPos="random" type="bus__bus"/>
    <trip id="bus_171" depart="3335.00" from="150837268#7" to="-150837246" departLane="best" departSpeed="max" departPos="random" type="bus__bus"/>
    <trip id="bus_172" depart="3360.00" from="150921661#1" to="-479690293#2" departLane="best" departSpeed="max" departPos="random" type="bus__bus"/>
    <trip id="bus_173" depart="3366.00" from="-602111791" to="-150837471#0" departLane="best" departSpeed="max" departPos="random" type="bus__bus"/>
    <trip id="bus_174" depart="3374.00" from="150812864#3" to="479687736#5" departLane="best" departSpeed="max" departPos="random" type="bus__bus"/>
    <trip id="bus_175" depart="3388.00" from="-150921822#1" to="479690293#0" departLane="best" departSpeed="max" departPos="random" type="bus__bus"/>
    <trip id="bus_176" depart="3438.00" from="479690292#1" to="479690294#1" departLane="best" departSpeed="max" departPos="random" type="bus__bus"/>
    <trip id="bus_177" depart="3454.00" from="-150837427#1" to="656052090" departLane="best" departSpeed="max" departPos="random" type="bus__bus"/>
    <trip id="bus_178" depart="3457.00" from="150837479#0" to="150837379#0" departLane="best" departSpeed="max" departPos="random" type="bus__bus"/>
    <trip id="bus_179" depart="3492.00" from="601770472#1" to="-479690293#0" departLane="best" departSpeed="max" departPos="random" type="bus__bus"/>
    <trip id="bus_180" depart="3502.00" from="-196125607" to="-70193391#0" departLane="best" departSpeed="max" departPos="random" type="bus__bus"/>
    <trip id="bus_181" depart="3521.00" from="-150837407#1" to="-662231207" departLane="best" departSpeed="max" departPos="random" type="bus__bus"/>
    <trip id="bus_182" depart="3540.00" from="193107812#1" to="-150921818#0" departLane="best" departSpeed="max" departPos="random" type="bus__bus"/>
    <trip id="bus_183" depart="3546.00" from="150837478#6" to="150813160#2" departLane="best" departSpeed="max" departPos="random" type="bus__bus"/>
    <trip id="bus_184" depart="3555.00" from="-150921477#0" to="150837478#7" departLane="best" departSpeed="max" departPos="random" type="bus__bus"/>
    <trip id="bus_185" depart="3567.00" from="-150921787#3" to="150921477#0" departLane="best" departSpeed="max" departPos="random" type="bus__bus"/>
    <trip id="bus_186" depart="3607.00" from="-150921756#1" to="70193388#0" departLane="best" departSpeed="max" departPos="random" type="bus__bus"/>
    <trip id="bus_187" depart="3635.00" from="662969525" to="150837276#1" departLane="best" departSpeed="max" departPos="random" type="bus__bus"/>
    <trip id="bus_188" depart="3640.00" from="150812864#9" to="193107842" departLane="best" departSpeed="max" departPos="random" type="bus__bus"/>
    <trip id="bus_189" depart="3664.00" from="513603326#0" to="150837528#7" departLane="best" departSpeed="max" departPos="random" type="bus__bus"/>
    <trip id="bus_190" depart="3689.00" from="479687736#1" to="-150921822#3" departLane="best" departSpeed="max" departPos="random" type="bus__bus"/>
    <trip id="bus_191" depart="3699.00" from="150837528#3" to="-150837528#6" departLane="best" departSpeed="max" departPos="random" type="bus__bus"/>
    <trip id="bus_192" depart="3733.00" from="-690332512#5" to="150837427#2" departLane="best" departSpeed="max" departPos="random" type="bus__bus"/>
    <trip id="bus_193" depart="3756.00" from="150837528#6" to="479690289#10" departLane="best" departSpeed="max" departPos="random" type="bus__bus"/>
    <trip id="bus_194" depart="3812.00" from="662969525" to="-479688691#0" departLane="best" departSpeed="max" departPos="random" type="bus__bus"/>
    <trip id="bus_195" depart="3869.00" from="-602111789" to="150837254#0" departLane="best" departSpeed="max" departPos="random" type="bus__bus"/>
    <trip id="bus_196" depart="3873.00" from="70193388#4" to="-150837172#1" departLane="best" departSpeed="max" departPos="random" type="bus__bus"/>