<?xml version="1.0" encoding="UTF-8"?>

<!-- generated on 2024-01-11 19:33:10.480033 by randomTrips.py v1_19_0+0000-baa66a0f364
<configuration>
    <net-file value="osm.net.xml"/>
    <additional-files value="osm.add.xml"/>
    <output-trip-file value="osm.taxi.trips.xml"/>
    <prefix value="taxi_"/>
    <trip-attributes value="guiShape=&quot;taxi&quot; departLane=&quot;best&quot; departSpeed=&quot;max&quot; departPos=&quot;random&quot;"/>
    <vehicle-class value="passenger"/>
    <end value="40000.0"/>
    <period value="60.0"/>
    <binomial value="30"/>
</configuration>
-->

<routes xmlns:xsi="http://www.w3.org/2001/XMLSchema-instance" xsi:noNamespaceSchemaLocation="http://sumo.dlr.de/xsd/routes_file.xsd">
    <vType id="taxi__passenger" vClass="passenger" guiShape="taxi"/>
    <trip id="taxi_0" depart="13.00" from="-193107812#0" to="-70193391#2" departLane="best" departSpeed="max" departPos="random" type="taxi__passenger"/>
    <trip id="taxi_1" depart="117.00" from="-150837268#2" to="150837433#2" departLane="best" departSpeed="max" departPos="random" type="taxi__passenger"/>
    <trip id="taxi_2" depart="136.00" from="-150837453#0" to="t_w" departLane="best" departSpeed="max" departPos="random" type="taxi__passenger"/>
    <trip id="taxi_3" depart="144.00" from="479688953#1" to="479690293#1" departLane="best" departSpeed="max" departPos="random" type="taxi__passenger"/>
    <trip id="taxi_4" depart="174.00" from="-150837433#1" to="-150837443" departLane="best" departSpeed="max" departPos="random" type="taxi__passenger"/>
    <trip id="taxi_5" depart="238.00" from="70193383#0" to="150837077#3" departLane="best" departSpeed="max" departPos="random" type="taxi__passenger"/>
    <trip id="taxi_6" depart="276.00" from="-193161031" to="70193388#5" departLane="best" departSpeed="max" departPos="random" type="taxi__passenger"/>
    <trip id="taxi_7" depart="326.00" from="150837433#2" to="-150837379#1" departLane="best" departSpeed="max" departPos="random" type="taxi__passenger"/>
    <trip id="taxi_8" depart="380.00" from="193161028#1" to="150837433#0" departLane="best" departSpeed="max" departPos="random" type="taxi__passenger"/>
    <trip id="taxi_9" depart="395.00" from="-150921687#2" to="150837268#9" departLane="best" departSpeed="max" departPos="random" type="taxi__passenger"/>
    <trip id="taxi_10" depart="434.00" from="-150837077#6" to="-150837191#1" departLane="best" departSpeed="max" departPos="random" type="taxi__passenger"/>
    <trip id="taxi_11" depart="435.00" from="-941459814#1" to="150921818#1" departLane="best" departSpeed="max" departPos="random" type="taxi__passenger"/>
    <trip id="taxi_12" depart="481.00" from="150921480#1" to="70193383#0" departLane="best" departSpeed="max" departPos="random" type="taxi__passenger"/>
    <trip id="taxi_13" depart="590.00" from="-150837426" to="-150921708#0" departLane="best" departSpeed="max" departPos="random" type="taxi__passenger"/>
    <trip id="taxi_14" depart="618.00" from="479780488#9" to="150837347#0" departLane="best" departSpeed="max" departPos="random" type="taxi__passenger"/>
    <trip id="taxi_15" depart="701.00" from="-150921818#0" to="-70193392#0" departLane="best" departSpeed="max" departPos="random" type="taxi__passenger"/>
    <trip id="taxi_16" depart="938.00" from="150837523#4" to="-150837191#1" departLane="best" departSpeed="max" departPos="random" type="taxi__passenger"/>
    <trip id="taxi_17" depart="991.00" from="479690302#2" to="-150837478#12" departLane="best" departSpeed="max" departPos="random" type="taxi__passenger"/>
    <trip id="taxi_18" depart="1091.00" from="-150837193#1" to="-150837444" departLane="best" departSpeed="max" departPos="random" type="taxi__passenger"/>
    <trip id="taxi_19" depart="1256.00" from="-690332512#5" to="150837427#2" departLane="best" departSpeed="max" departPos="random" type="taxi__passenger"/>
    <trip id="taxi_20" depart="1333.00" from="150837129#0" to="150837222" departLane="best" departSpeed="max" departPos="random" type="taxi__passenger"/>
    <trip id="taxi_21" depart="1384.00" from="150921720#1" to="-479690295#1" departLane="best" departSpeed="max" departPos="random" type="taxi__passenger"/>
    <trip id="taxi_22" depart="1396.00" from="-150837200#0" to="-150837198#1" departLane="best" departSpeed="max" departPos="random" type="taxi__passenger"/>
    <trip id="taxi_23" depart="1413.00" from="-259055473#2" to="-150837482#7" departLane="best" departSpeed="max" departPos="random" type="taxi__passenger"/>
    <trip id="taxi_24" depart="1434.00" from="150812864#3" to="150837427#2" departLane="best" departSpeed="max" departPos="random" type="taxi__passenger"/>
    <trip id="taxi_25" depart="1518.00" from="-150837077#3" to="150921661#1" departLane="best" departSpeed="max" departPos="random" type="taxi__passenger"/>
    <trip id="taxi_26" depart="1594.00" from="941715210#5" to="-150837523#7" departLane="best" departSpeed="max" departPos="random" type="taxi__passenger"/>
    <trip id="taxi_27" depart="1657.00" from="479690289#2" to="-941715210#5" departLane="best" departSpeed="max" departPos="random" type="taxi__passenger"/>
    <trip id="taxi_28" depart="1774.00" from="-150813160#0" to="602111793" departLane="best" departSpeed="max" departPos="random" type="taxi__passenger"/>
    <trip id="taxi_29" depart="1829.00" from="193638676#0" to="673765757#9" departLane="best" departSpeed="max" departPos="random" type="taxi__passenger"/>
    <trip id="taxi_30" depart="1932.00" from="-150837396#0" to="-150837168" departLane="best" departSpeed="max" departPos="random" type="taxi__passenger"/>
    <trip id="taxi_31" depart="1947.00" from="-479780488#9" to="150837295#0" departLane="best" departSpeed="max" departPos="random" type="taxi__passenger"/>
    <trip id="taxi_32" depart="1954.00" from="150837238#1" to="150837195#0" departLane="best" departSpeed="max" departPos="random" type="taxi__passenger"/>
    <trip id="taxi_33" depart="2030.00" from="479690289#11" to="70193392#1" departLane="best" departSpeed="max" departPos="random" type="taxi__passenger"/>
    <trip id="taxi_34" depart="2201.00" from="150837389#1" to="-941715210#0" departLane="best" departSpeed="max" departPos="random" type="taxi__passenger"/>
    <trip id="taxi_35" depart="2265.00" from="941745039#1" to="-70193383#3" departLane="best" departSpeed="max" departPos="random" type="taxi__passenger"/>
    <trip id="taxi_36" depart="2333.00" from="-479780488#1" to="193107812#2" departLane="best" departSpeed="max" departPos="random" type="taxi__passenger"/>
    <trip id="taxi_37" depart="2367.00" from="-150837077#7" to="-150837199#0" departLane="best" departSpeed="max" departPos="random" type="taxi__passenger"/>
    <trip id="taxi_38" depart="2486.00" from="150837479#2" to="-257846693#1" departLane="best" departSpeed="max" departPos="random" type="taxi__passenger"/>
    <trip id="taxi_39" depart="2597.00" from="-150837482#5" to="150837478#7" departLane="best" departSpeed="max" departPos="random" type="taxi__passenger"/>
    <trip id="taxi_40" depart="2642.00" from="-193107812#1" to="150837254#0" departLane="best" departSpeed="max" departPos="random" type="taxi__passenger"/>
    <trip id="taxi_41" depart="2648.00" from="150921708#0" to="70193392#6" departLane="best" departSpeed="max" departPos="random" type="taxi__passenger"/>
    <trip id="taxi_42" depart="2652.00" from="150837193#0" to="-150837442#1" departLane="best" departSpeed="max" departPos="random" type="taxi__passenger"/>
    <trip id="taxi_43" depart="2661.00" from="150921629#0" to="-70193392#6" departLane="best" departSpeed="max" departPos="random" type="taxi__passenger"/>
    <trip id="taxi_44" depart="2662.00" from="150921818#2" to="941745039#1" departLane="best" departSpeed="max" departPos="random" type="taxi__passenger"/>
    <trip id="taxi_45" depart="2798.00" from="150812841#0" to="-150837407#0" departLane="best" departSpeed="max" departPos="random" type="taxi__passenger"/>
    <trip id="taxi_46" depart="2904.00" from="-150813160#0" to="941745039#7" departLane="best" departSpeed="max" departPos="random" type="taxi__passenger"/>
    <trip id="taxi_47" depart="2982.00" from="150837453#0" to="150837499#8" departLane="best" departSpeed="max" departPos="random" type="taxi__passenger"/>
    <trip id="taxi_48" depart="2997.00" from="-479688691#1" to="479690281#2" departLane="best" departSpeed="max" departPos="random" type="taxi__passenger"/>
    <trip id="taxi_49" depart="3024.00" from="-257571789#0" to="-690332512#1" departLane="best" departSpeed="max" departPos="random" type="taxi__passenger"/>
    <trip id="taxi_50" depart="3253.00" from="-259055473#1" to="150921756#1" departLane="best" departSpeed="max" departPos="random" type="taxi__passenger"/>
    <trip id="taxi_51" depart="3258.00" from="-378534333#0" to="-150837276#1" departLane="best" departSpeed="max" departPos="random" type="taxi__passenger"/>
    <trip id="taxi_52" depart="3259.00" from="479690306#1" to="259055473#4" departLane="best" departSpeed="max" departPos="random" type="taxi__passenger"/>
    <trip id="taxi_53" depart="3262.00" from="-193638676#0" to="941459814#2" departLane="best" departSpeed="max" departPos="random" type="taxi__passenger"/>
    <trip id="taxi_54" depart="3569.00" from="150921822#0" to="479690290#0" departLane="best" departSpeed="max" departPos="random" type="taxi__passenger"/>
    <trip id="taxi_55" depart="3644.00" from="480188364#1" to="-150921480#1" departLane="best" departSpeed="max" departPos="random" type="taxi__passenger"/>
    <trip id="taxi_56" depart="3660.00" from="150837347#1" to="150812864#6" departLane="best" departSpeed="max" departPos="random" type="taxi__passenger"/>
    <trip id="taxi_57" depart="3768.00" from="-150837482#3" to="150837268#2" departLane="best" departSpeed="max" departPos="random" type="taxi__passenger"/>
    <trip id="taxi_58" depart="3774.00" from="941745039#8" to="150837433#2" departLane="best" departSpeed="max" departPos="random" type="taxi__passenger"/>
    <trip id="taxi_59" depart="3787.00" from="-193107835#2" to="479780488#2" departLane="best" departSpeed="max" departPos="random" type="taxi__passenger"/>
    <trip id="taxi_60" depart="3865.00" from="-150921629#1" to="150921822#1" departLane="best" departSpeed="max" departPos="random" type="taxi__passenger"/>
    <trip id="taxi_61" depart="3872.00" from="-150921708#0" to="-150837482#2" departLane="best" departSpeed="max" departPos="random" type="taxi__passenger"/>
    <trip id="taxi_62" depart="4058.00" from="-150837276#2" to="-150837246" departLane="best" departSpeed="max" departPos="random" type="taxi__passenger"/>
    <trip id="taxi_63" depart="4305.00" from="941715210#5" to="70193392#3" departLane="best" departSpeed="max" departPos="random" type="taxi__passenger"/>
    <trip id="taxi_64" depart="4424.00" from="193107842" to="150837168" departLane="best" departSpeed="max" departPos="random" type="taxi__passenger"/>
    <trip id="taxi_65" depart="4428.00" from="150837427#3" to="193161031" departLane="best" departSpeed="max" departPos="random" type="taxi__passenger"/>
    <trip id="taxi_66" depart="4491.00" from="-150837433#0" to="150921753#0" departLane="best" departSpeed="max" departPos="random" type="taxi__passenger"/>
    <trip id="taxi_67" depart="4599.00" from="70193383#4" to="150837254#1" departLane="best" departSpeed="max" departPos="random" type="taxi__passenger"/>
    <trip id="taxi_68" depart="4658.00" from="150837389#0" to="479688953#1" departLane="best" departSpeed="max" departPos="random" type="taxi__passenger"/>
    <trip id="taxi_69" depart="4762.00" from="150837077#3" to="150837246" departLane="best" departSpeed="max" departPos="random" type="taxi__passenger"/>
    <trip id="taxi_70" depart="4802.00" from="150921661#1" to="-537254108" departLane="best" departSpeed="max" departPos="random" type="taxi__passenger"/>
    <trip id="taxi_71" depart="4834.00" from="479690295#1" to="150837172#2" departLane="best" departSpeed="max" departPos="random" type="taxi__passenger"/>
    <trip id="taxi_72" depart="4865.00" from="666277190" to="479690289#10" departLane="best" departSpeed="max" departPos="random" type="taxi__passenger"/>
    <trip id="taxi_73" depart="4880.00" from="-479688692#0" to="-150837482#5" departLane="best" departSpeed="max" departPos="random" type="taxi__passenger"/>
    <trip id="taxi_74" depart="4944.00" from="-150921822#2" to="-150837523#4" departLane="best" departSpeed="max" departPos="random" type="taxi__passenger"/>
    <trip id="taxi_75" depart="4956.00" from="479690293#1" to="537254108" departLane="best" departSpeed="max" departPos="random" type="taxi__passenger"/>
    <trip id="taxi_76" depart="5017.00" from="150837453#0" to="-150837442#1" departLane="best" departSpeed="max" departPos="random" type="taxi__passenger"/>
    <trip id="taxi_77" depart="5124.00" from="70193383#3" to="-656052090" departLane="best" departSpeed="max" departPos="random" type="taxi__passenger"/>
    <trip id="taxi_78" depart="5155.00" from="150837499#4" to="-150921720#0" departLane="best" departSpeed="max" departPos="random" type="taxi__passenger"/>
    <trip id="taxi_79" depart="5242.00" from="-378534333#0" to="150837523#2" departLane="best" departSpeed="max" departPos="random" type="taxi__passenger"/>
    <trip id="taxi_80" depart="5332.00" from="150837499#5" to="150837482#5" departLane="best" departSpeed="max" departPos="random" type="taxi__passenger"/>
    <trip id="taxi_81" depart="5392.00" from="479688692#0" to="-150921787#3" departLane="best" departSpeed="max" departPos="random" type="taxi__passenger"/>
    <trip id="taxi_82" depart="5403.00" from="-150921753#0" to="193638676#2" departLane="best" departSpeed="max" departPos="random" type="taxi__passenger"/>
    <trip id="taxi_83" depart="5403.00" from="150921480#1" to="-150837077#6" departLane="best" departSpeed="max" departPos="random" type="taxi__passenger"/>
    <trip id="taxi_84" depart="5424.00" from="-150921708#0" to="193107835#1" departLane="best" departSpeed="max" departPos="random" type="taxi__passenger"/>
    <trip id="taxi_85" depart="5442.00" from="150837268#4" to="-662231882" departLane="best" departSpeed="max" departPos="random" type="taxi__passenger"/>
    <trip id="taxi_86" depart="5460.00" from="-150812864#10" to="150837268#4" departLane="best" departSpeed="max" departPos="random" type="taxi__passenger"/>
    <trip id="taxi_87" depart="5629.00" from="150921818#0" to="-150921708#0" departLane="best" departSpeed="max" departPos="random" type="taxi__passenger"/>
    <trip id="taxi_88" depart="5633.00" from="-150812864#10" to="941745039#7" departLane="best" departSpeed="max" departPos="random" type="taxi__passenger"/>
    <trip id="taxi_89" depart="5768.00" from="-150837482#4" to="-150837389#1" departLane="best" departSpeed="max" departPos="random" type="taxi__passenger"/>
    <trip id="taxi_90" depart="5771.00" from="479688999#2" to="672252725" departLane="best" departSpeed="max" departPos="random" type="taxi__passenger"/>
    <trip id="taxi_91" depart="5780.00" from="193638674" to="-941715210#5" departLane="best" departSpeed="max" departPos="random" type="taxi__passenger"/>
    <trip id="taxi_92" depart="5826.00" from="150921721#1" to="193107842" departLane="best" departSpeed="max" departPos="random" type="taxi__passenger"/>
    <trip id="taxi_93" depart="5859.00" from="150921687#0" to="150921661#0" departLane="best" departSpeed="max" departPos="random" type="taxi__passenger"/>
    <trip id="taxi_94" depart="5943.00" from="-150921661#0" to="-150837499#9" departLane="best" departSpeed="max" departPos="random" type="taxi__passenger"/>
    <trip id="taxi_95" depart="6003.00" from="-70193392#1" to="196125606#1" departLane="best" departSpeed="max" departPos="random" type="taxi__passenger"/>
    <trip id="taxi_96" depart="6155.00" from="479688999#2" to="-378534333#0" departLane="best" departSpeed="max" departPos="random" type="taxi__passenger"/>
    <trip id="taxi_97" depart="6268.00" from="-259055473#3" to="-150837147#0" departLane="best" departSpeed="max" departPos="random" type="taxi__passenger"/>
    <trip id="taxi_98" depart="6282.00" from="-479690293#3" to="-479688691#2" departLane="best" departSpeed="max" departPos="random" type="taxi__passenger"/>
    <trip id="taxi_99" depart="6383.00" from="150837129#0" to="150837499#3" departLane="best" departSpeed="max" departPos="random" type="taxi__passenger"/>
    <trip id="taxi_100" depart="6407.00" from="150837471#0" to="150837077#3" departLane="best" departSpeed="max" departPos="random" type="taxi__passenger"/>
    <trip id="taxi_101" depart="6443.00" from="-70193388#2" to="E4" departLane="best" departSpeed="max" departPos="random" type="taxi__passenger"/>
    <trip id="taxi_102" depart="6476.00" from="70193392#2" to="150921822#5" departLane="best" departSpeed="max" departPos="random" type="taxi__passenger"/>
    <trip id="taxi_103" depart="6507.00" from="150837314" to="-150837268#2" departLane="best" departSpeed="max" departPos="random" type="taxi__passenger"/>
    <trip id="taxi_104" depart="6518.00" from="941459814#1" to="150837499#9" departLane="best" departSpeed="max" departPos="random" type="taxi__passenger"/>
    <trip id="taxi_105" depart="6718.00" from="-70193392#1" to="-150837268#3" departLane="best" departSpeed="max" departPos="random" type="taxi__passenger"/>
    <trip id="taxi_106" depart="6754.00" from="673765757#6" to="480188362#1" departLane="best" departSpeed="max" departPos="random" type="taxi__passenger"/>
    <trip id="taxi_107" depart="7050.00" from="150921822#3" to="193107835#0" departLane="best" departSpeed="max" departPos="random" type="taxi__passenger"/>
    <trip id="taxi_108" depart="7068.00" from="150837238#6" to="-150921818#0" departLane="best" departSpeed="max" departPos="random" type="taxi__passenger"/>
    <trip id="taxi_109" depart="7071.00" from="150812841#0" to="-150921687#0" departLane="best" departSpeed="max" departPos="random" type="taxi__passenger"/>
    <trip id="taxi_110" depart="7112.00" from="-150921787#0" to="-479780488#6" departLane="best" departSpeed="max" departPos="random" type="taxi__passenger"/>
    <trip id="taxi_111" depart="7152.00" from="-150837268#8" to="-150837077#1" departLane="best" departSpeed="max" departPos="random" type="taxi__passenger"/>
    <trip id="taxi_112" depart="7170.00" from="259055473#4" to="150837453#1" departLane="best" departSpeed="max" departPos="random" type="taxi__passenger"/>
    <trip id="taxi_113" depart="7201.00" from="-150837528#1" to="-150837200#0" departLane="best" departSpeed="max" departPos="random" type="taxi__passenger"/>
    <trip id="taxi_114" depart="7281.00" from="-690332521#0" to="196125603" departLane="best" departSpeed="max" departPos="random" type="taxi__passenger"/>
    <trip id="taxi_115" depart="7297.00" from="-150837191#0" to="-70193391#2" departLane="best" departSpeed="max" departPos="random" type="taxi__passenger"/>
    <trip id="taxi_116" depart="7304.00" from="-150837482#1" to="-378534333#1" departLane="best" departSpeed="max" departPos="random" type="taxi__passenger"/>
    <trip id="taxi_117" depart="7328.00" from="150837433#2" to="west" departLane="best" departSpeed="max" departPos="random" type="taxi__passenger"/>
    <trip id="taxi_118" depart="7373.00" from="150812864#2" to="-257571789#0" departLane="best" departSpeed="max" departPos="random" type="taxi__passenger"/>
    <trip id="taxi_119" depart="7506.00" from="479690293#2" to="150921753#1" departLane="best" departSpeed="max" departPos="random" type="taxi__passenger"/>
    <trip id="taxi_120" depart="7662.00" from="601770472#2" to="690332512#2" departLane="best" departSpeed="max" departPos="random" type="taxi__passenger"/>
    <trip id="taxi_121" depart="7689.00" from="-479780488#7" to="-150812864#3" departLane="best" departSpeed="max" departPos="random" type="taxi__passenger"/>
    <trip id="taxi_122" depart="7749.00" from="150837523#7" to="-193638676#0" departLane="best" departSpeed="max" departPos="random" type="taxi__passenger"/>
    <trip id="taxi_123" depart="8033.00" from="-150837453#2" to="196125601" departLane="best" departSpeed="max" departPos="random" type="taxi__passenger"/>
    <trip id="taxi_124" depart="8167.00" from="-150837322" to="479690281#5" departLane="best" departSpeed="max" departPos="random" type="taxi__passenger"/>
    <trip id="taxi_125" depart="8205.00" from="257846693#3" to="150837478#5" departLane="best" departSpeed="max" departPos="random" type="taxi__passenger"/>
    <trip id="taxi_126" depart="8283.00" from="-150837478#12" to="150837453#0" departLane="best" departSpeed="max" departPos="random" type="taxi__passenger"/>
    <trip id="taxi_127" depart="8296.00" from="150837478#8" to="-150812841#2" departLane="best" departSpeed="max" departPos="random" type="taxi__passenger"/>
    <trip id="taxi_128" depart="8327.00" from="150837528#4" to="257571793#0" departLane="best" departSpeed="max" departPos="random" type="taxi__passenger"/>
    <trip id="taxi_129" depart="8427.00" from="-150837353" to="-193638676#2" departLane="best" departSpeed="max" departPos="random" type="taxi__passenger"/>
    <trip id="taxi_130" depart="8516.00" from="-150921818#0" to="941745039#8" departLane="best" departSpeed="max" departPos="random" type="taxi__passenger"/>
    <trip id="taxi_131" depart="8555.00" from="479690295#0" to="-150837478#0" departLane="best" departSpeed="max" departPos="random" type="taxi__passenger"/>
    <trip id="taxi_132" depart="8573.00" from="-150837478#12" to="331243177" departLane="best" departSpeed="max" departPos="random" type="taxi__passenger"/>
    <trip id="taxi_133" depart="8613.00" from="150921661#1" to="-150837318#0" departLane="best" departSpeed="max" departPos="random" type="taxi__passenger"/>
    <trip id="taxi_134" depart="8614.00" from="-70193392#2" to="150837465#1" departLane="best" departSpeed="max" departPos="random" type="taxi__passenger"/>
    <trip id="taxi_135" depart="8682.00" from="-150837203#1" to="-150921687#3" departLane="best" departSpeed="max" departPos="random" type="taxi__passenger"/>
    <trip id="taxi_136" depart="8772.00" from="257846693#4" to="-70193383#0" departLane="best" departSpeed="max" departPos="random" type="taxi__passenger"/>
    <trip id="taxi_137" depart="8776.00" from="-257571787" to="70193388#1" departLane="best" departSpeed="max" departPos="random" type="taxi__passenger"/>
    <trip id="taxi_138" depart="8780.00" from="150837389#1" to="-150837478#7" departLane="best" departSpeed="max" departPos="random" type="taxi__passenger"/>
    <trip id="taxi_139" depart="8785.00" from="-193107812#2" to="-150921477#0" departLane="best" departSpeed="max" departPos="random" type="taxi__passenger"/>
    <trip id="taxi_140" depart="8817.00" from="-479780488#6" to="-150837318#2" departLane="best" departSpeed="max" departPos="random" type="taxi__passenger"/>
    <trip id="taxi_141" depart="8892.00" from="-150812864#2" to="-150837499#1" departLane="best" departSpeed="max" departPos="random" type="taxi__passenger"/>
    <trip id="taxi_142" depart="8955.00" from="150837129#1" to="-653736385#0" departLane="best" departSpeed="max" departPos="random" type="taxi__passenger"/>
    <trip id="taxi_143" depart="8999.00" from="-150837478#12" to="196125606#0" departLane="best" departSpeed="max" departPos="random" type="taxi__passenger"/>
    <trip id="taxi_144" depart="9017.00" from="150837523#1" to="150837268#3" departLane="best" departSpeed="max" departPos="random" type="taxi__passenger"/>
    <trip id="taxi_145" depart="9018.00" from="-150837238#6" to="-150837499#9" departLane="best" departSpeed="max" departPos="random" type="taxi__passenger"/>
    <trip id="taxi_146" depart="9058.00" from="-150837200#0" to="656052090" departLane="best" departSpeed="max" departPos="random" type="taxi__passenger"/>
    <trip id="taxi_147" depart="9113.00" from="-150837322" to="941715210#0" departLane="best" departSpeed="max" departPos="random" type="taxi__passenger"/>
    <trip id="taxi_148" depart="9141.00" from="-479690293#2" to="150921822#3" departLane="best" departSpeed="max" departPos="random" type="taxi__passenger"/>
    <trip id="taxi_149" depart="9184.00" from="-70193392#0" to="150837268#1" departLane="best" departSpeed="max" departPos="random" type="taxi__passenger"/>
    <trip id="taxi_150" depart="9203.00" from="150837478#6" to="150837478#2" departLane="best" departSpeed="max" departPos="random" type="taxi__passenger"/>
    <trip id="taxi_151" depart="9204.00" from="479690281#0" to="-150837479#2" departLane="best" departSpeed="max" departPos="random" type="taxi__passenger"/>
    <trip id="taxi_152" depart="9236.00" from="150837442#1" to="150812782" departLane="best" departSpeed="max" departPos="random" type="taxi__passenger"/>
    <trip id="taxi_153" depart="9319.00" from="-653736385#1" to="150837268#8" departLane="best" departSpeed="max" departPos="random" type="taxi__passenger"/>
    <trip id="taxi_154" depart="9341.00" from="-150812864#6" to="479690294#1" departLane="best" departSpeed="max" departPos="random" type="taxi__passenger"/>
    <trip id="taxi_155" depart="9526.00" from="666277190" to="480188364#1" departLane="best" departSpeed="max" departPos="random" type="taxi__passenger"/>
    <trip id="taxi_156" depart="9667.00" from="-150837445" to="-150837396#0" departLane="best" departSpeed="max" departPos="random" type="taxi__passenger"/>
    <trip id="taxi_157" depart="9698.00" from="479690293#4" to="-150837314" departLane="best" departSpeed="max" departPos="random" type="taxi__passenger"/>
    <trip id="taxi_158" depart="9709.00" from="150837276#0" to="-150837523#2" departLane="best" departSpeed="max" departPos="random" type="taxi__passenger"/>
    <trip id="taxi_159" depart="9717.00" from="70193391#1" to="150837203#1" departLane="best" departSpeed="max" departPos="random" type="taxi__passenger"/>
    <trip id="taxi_160" depart="9732.00" from="-150837445" to="150921818#0" departLane="best" departSpeed="max" departPos="random" type="taxi__passenger"/>
    <trip id="taxi_161" depart="9866.00" from="-150837528#3" to="150812864#6" departLane="best" departSpeed="max" departPos="random" type="taxi__passenger"/>
    <trip id="taxi_162" depart="9898.00" from="-150813160#2" to="70192998#1" departLane="best" departSpeed="max" departPos="random" type="taxi__passenger"/>
    <trip id="taxi_163" depart="10030.00" from="-150837154" to="150837191#0" departLane="best" departSpeed="max" departPos="random" type="taxi__passenger"/>
    <trip id="taxi_164" depart="10082.00" from="150837407#0" to="150837442#1" departLane="best" departSpeed="max" departPos="random" type="taxi__passenger"/>
    <trip id="taxi_165" depart="10143.00" from="-656052090" to="150921818#2" departLane="best" departSpeed="max" departPos="random" type="taxi__passenger"/>
    <trip id="taxi_166" depart="10181.00" from="-150837276#3" to="479690302#0" departLane="best" departSpeed="max" departPos="random" type="taxi__passenger"/>
    <trip id="taxi_167" depart="10185.00" from="-150921661#0" to="-193107817" departLane="best" departSpeed="max" departPos="random" type="taxi__passenger"/>
    <trip id="taxi_168" depart="10300.00" from="-150837246" to="70193388#1" departLane="best" departSpeed="max" departPos="random" type="taxi__passenger"/>
    <trip id="taxi_169" depart="10335.00" from="193638676#1" to="-150812841#2" departLane="best" departSpeed="max" departPos="random" type="taxi__passenger"/>
    <trip id="taxi_170" depart="10376.00" from="-150921822#3" to="150837426" departLane="best" departSpeed="max" departPos="random" type="taxi__passenger"/>
    <trip id="taxi_171" depart="10411.00" from="150837479#2" to="150921477#1" departLane="best" departSpeed="max" departPos="random" type="taxi__passenger"/>
    <trip id="taxi_172" depart="10455.00" from="70193392#4" to="-150837465#1" departLane="best" departSpeed="max" departPos="random" type="taxi__passenger"/>
    <trip id="taxi_173" depart="10510.00" from="150837238#5" to="-150921787#1" departLane="best" departSpeed="max" departPos="random" type="taxi__passenger"/>
    <trip id="taxi_174" depart="10659.00" from="196125594" to="-150812841#1" departLane="best" departSpeed="max" departPos="random" type="taxi__passenger"/>
    <trip id="taxi_175" depart="10750.00" from="150921661#1" to="150812864#8" departLane="best" departSpeed="max" departPos="random" type="taxi__passenger"/>
    <trip id="taxi_176" depart="10847.00" from="150837482#5" to="-150837528#4" departLane="best" departSpeed="max" departPos="random" type="taxi__passenger"/>
    <trip id="taxi_177" depart="10848.00" from="-150837322" to="150921753#1" departLane="best" departSpeed="max" departPos="random" type="taxi__passenger"/>
    <trip id="taxi_178" depart="10894.00" from="-150837198#1" to="193107812#2" departLane="best" departSpeed="max" departPos="random" type="taxi__passenger"/>
    <trip id="taxi_179" depart="10901.00" from="-150921721#1" to="150837303#0" departLane="best" departSpeed="max" departPos="random" type="taxi__passenger"/>
    <trip id="taxi_180" depart="11110.00" from="150837523#5" to="150837238#0" departLane="best" departSpeed="max" departPos="random" type="taxi__passenger"/>
    <trip id="taxi_181" depart="11304.00" from="193107812#1" to="-70193388#5" departLane="best" departSpeed="max" departPos="random" type="taxi__passenger"/>
    <trip id="taxi_182" depart="11351.00" from="479690302#2" to="150837482#5" departLane="best" departSpeed="max" departPos="random" type="taxi__passenger"/>
    <trip id="taxi_183" depart="11571.00" from="-150812864#11" to="70192998#1" departLane="best" departSpeed="max" departPos="random" type="taxi__passenger"/>
    <trip id="taxi_184" depart="11574.00" from="150837433#2" to="150837482#5" departLane="best" departSpeed="max" departPos="random" type="taxi__passenger"/>
    <trip id="taxi_185" depart="11615.00" from="-690332521#0" to="-150812864#7" departLane="best" departSpeed="max" departPos="random" type="taxi__passenger"/>