<?xml version="1.0" encoding="UTF-8"?>

<!-- generated on 2024-04-02 13:52:19.524064 by randomTrips.py v1_19_0+0000-baa66a0f364
<configuration>
    <net-file value="osm.net.xml"/>
    <additional-files value="osm.add.xml"/>
    <output-trip-file value="osm.passenger.trips.xml"/>
    <prefix value="pas_"/>
    <trip-attributes value=" departLane=&quot;best&quot; departSpeed=&quot;max&quot; departPos=&quot;random&quot;"/>
    <vehicle-class value="passenger"/>
    <end value="40000.0"/>
    <period value="100.0"/>
    <binomial value="5"/>
</configuration>
-->

<routes xmlns:xsi="http://www.w3.org/2001/XMLSchema-instance" xsi:noNamespaceSchemaLocation="http://sumo.dlr.de/xsd/routes_file.xsd">
    <vType id="pas__passenger" vClass="passenger"/>
    <trip id="pas_0" depart="24.00" from="-257846693#3" to="-150837077#0" departLane="best" departSpeed="max" departPos="random" type="pas__passenger"/>
    <trip id="pas_1" depart="73.00" from="690332512#7" to="150837246" departLane="best" departSpeed="max" departPos="random" type="pas__passenger"/>
    <trip id="pas_2" depart="78.00" from="-193107812#0" to="-70193391#2" departLane="best" departSpeed="max" departPos="random" type="pas__passenger"/>
    <trip id="pas_3" depart="507.00" from="70193392#6" to="-150837499#3" departLane="best" departSpeed="max" departPos="random" type="pas__passenger"/>
    <trip id="pas_4" depart="511.00" from="150837077#0" to="-150837407#2" departLane="best" departSpeed="max" departPos="random" type="pas__passenger"/>
    <trip id="pas_5" depart="549.00" from="150837497#0" to="479690293#2" departLane="best" departSpeed="max" departPos="random" type="pas__passenger"/>
    <trip id="pas_6" depart="582.00" from="673765757#8" to="-150837499#1" departLane="best" departSpeed="max" departPos="random" type="pas__passenger"/>
    <trip id="pas_7" depart="595.00" from="-601770472#2" to="150921818#4" departLane="best" departSpeed="max" departPos="random" type="pas__passenger"/>
    <trip id="pas_8" depart="700.00" from="-150837268#2" to="150837433#2" departLane="best" departSpeed="max" departPos="random" type="pas__passenger"/>
    <trip id="pas_9" depart="816.00" from="-150837453#0" to="t_w" departLane="best" departSpeed="max" departPos="random" type="pas__passenger"/>
    <trip id="pas_10" depart="866.00" from="479688953#1" to="479690293#1" departLane="best" departSpeed="max" departPos="random" type="pas__passenger"/>
    <trip id="pas_11" depart="895.00" from="150837478#8" to="-537254108" departLane="best" departSpeed="max" departPos="random" type="pas__passenger"/>
    <trip id="pas_12" depart="997.00" from="-150837077#0" to="150837478#12" departLane="best" departSpeed="max" departPos="random" type="pas__passenger"/>
    <trip id="pas_13" depart="1040.00" from="-150837433#1" to="-150837443" departLane="best" departSpeed="max" departPos="random" type="pas__passenger"/>
    <trip id="pas_14" depart="1429.00" from="150812864#2" to="479690281#4" departLane="best" departSpeed="max" departPos="random" type="pas__passenger"/>
    <trip id="pas_15" depart="1429.00" from="70193383#0" to="150837077#3" departLane="best" departSpeed="max" departPos="random" type="pas__passenger"/>
    <trip id="pas_16" depart="1590.00" from="-150837203#1" to="150921513" departLane="best" departSpeed="max" departPos="random" type="pas__passenger"/>
    <trip id="pas_17" depart="1621.00" from="-150837198#2" to="150837238#5" departLane="best" departSpeed="max" departPos="random" type="pas__passenger"/>
    <trip id="pas_18" depart="1654.00" from="-193161031" to="70193388#5" departLane="best" departSpeed="max" departPos="random" type="pas__passenger"/>
    <trip id="pas_19" depart="1733.00" from="-479688692#1" to="150837436" departLane="best" departSpeed="max" departPos="random" type="pas__passenger"/>
    <trip id="pas_20" depart="1934.00" from="-150921687#2" to="-479690293#2" departLane="best" departSpeed="max" departPos="random" type="pas__passenger"/>
    <trip id="pas_21" depart="1953.00" from="150837433#2" to="-150837379#1" departLane="best" departSpeed="max" departPos="random" type="pas__passenger"/>
    <trip id="pas_22" depart="2183.00" from="-150837433#2" to="480188362#2" departLane="best" departSpeed="max" departPos="random" type="pas__passenger"/>
    <trip id="pas_23" depart="2279.00" from="193161028#1" to="150837433#0" departLane="best" departSpeed="max" departPos="random" type="pas__passenger"/>
    <trip id="pas_24" depart="2369.00" from="-150921687#2" to="150837268#9" departLane="best" departSpeed="max" departPos="random" type="pas__passenger"/>
    <trip id="pas_25" depart="2603.00" from="-150837077#6" to="-150837191#1" departLane="best" departSpeed="max" departPos="random" type="pas__passenger"/>
    <trip id="pas_26" depart="2604.00" from="-941459814#1" to="150921818#1" departLane="best" departSpeed="max" departPos="random" type="pas__passenger"/>
    <trip id="pas_27" depart="2632.00" from="259055473#3" to="150837172#2" departLane="best" departSpeed="max" departPos="random" type="pas__passenger"/>
    <trip id="pas_28" depart="2727.00" from="150812841#2" to="331243177" departLane="best" departSpeed="max" departPos="random" type="pas__passenger"/>
    <trip id="pas_29" depart="2750.00" from="-150837200#0" to="479690299" departLane="best" departSpeed="max" departPos="random" type="pas__passenger"/>
    <trip id="pas_30" depart="2868.00" from="-150837482#3" to="-150837314" departLane="best" departSpeed="max" departPos="random" type="pas__passenger"/>
    <trip id="pas_31" depart="2882.00" from="150921480#1" to="70193383#0" departLane="best" departSpeed="max" departPos="random" type="pas__passenger"/>
    <trip id="pas_32" depart="2999.00" from="150837499#8" to="150837195#1" departLane="best" departSpeed="max" departPos="random" type="pas__passenger"/>
    <trip id="pas_33" depart="3053.00" from="150837479#3" to="150837528#2" departLane="best" departSpeed="max" departPos="random" type="pas__passenger"/>
    <trip id="pas_34" depart="3381.00" from="-150837246" to="-150837427#0" departLane="best" departSpeed="max" departPos="random" type="pas__passenger"/>
    <trip id="pas_35" depart="3418.00" from="-941459814#1" to="-150837268#4" departLane="best" departSpeed="max" departPos="random" type="pas__passenger"/>
    <trip id="pas_36" depart="3505.00" from="-479780488#1" to="150813160#1" departLane="best" departSpeed="max" departPos="random" type="pas__passenger"/>
    <trip id="pas_37" depart="3532.00" from="-150837426" to="-150921708#0" departLane="best" departSpeed="max" departPos="random" type="pas__passenger"/>
    <trip id="pas_38" depart="3546.00" from="-70193383#3" to="150837295#0" departLane="best" departSpeed="max" departPos="random" type="pas__passenger"/>
    <trip id="pas_39" depart="3622.00" from="150837238#6" to="-150837482#7" departLane="best" departSpeed="max" departPos="random" type="pas__passenger"/>
    <trip id="pas_40" depart="3645.00" from="259055473#4" to="-150837478#8" departLane="best" departSpeed="max" departPos="random" type="pas__passenger"/>
    <trip id="pas_41" depart="3697.00" from="479780488#9" to="150837347#0" departLane="best" departSpeed="max" departPos="random" type="pas__passenger"/>
    <trip id="pas_42" depart="3856.00" from="-150837499#7" to="-150837523#6" departLane="best" departSpeed="max" departPos="random" type="pas__passenger"/>
    <trip id="pas_43" depart="4124.00" from="-150921720#1" to="150837442#0" departLane="best" departSpeed="max" departPos="random" type="pas__passenger"/>
    <trip id="pas_44" depart="4131.00" from="70193388#0" to="257571787" departLane="best" departSpeed="max" departPos="random" type="pas__passenger"/>
    <trip id="pas_45" depart="4150.00" from="673765757#8" to="-193107842" departLane="best" departSpeed="max" departPos="random" type="pas__passenger"/>
    <trip id="pas_46" depart="4194.00" from="-150921818#0" to="-70193392#0" departLane="best" departSpeed="max" departPos="random" type="pas__passenger"/>
    <trip id="pas_47" depart="4201.00" from="-479688692#0" to="150921822#5" departLane="best" departSpeed="max" departPos="random" type="pas__passenger"/>
    <trip id="pas_48" depart="4416.00" from="w_t" to="193107812#2" departLane="best" departSpeed="max" departPos="random" type="pas__passenger"/>
    <trip id="pas_49" depart="4432.00" from="150812864#6" to="-150921661#0" departLane="best" departSpeed="max" departPos="random" type="pas__passenger"/>
    <trip id="pas_50" depart="4650.00" from="-150837303#0" to="-378534333#0" departLane="best" departSpeed="max" departPos="random" type="pas__passenger"/>
    <trip id="pas_51" depart="4737.00" from="-193107835#0" to="150837389#0" departLane="best" departSpeed="max" departPos="random" type="pas__passenger"/>
    <trip id="pas_52" depart="4819.00" from="150837479#3" to="-479688999#2" departLane="best" departSpeed="max" departPos="random" type="pas__passenger"/>
    <trip id="pas_53" depart="4959.00" from="-193107835#1" to="690332512#2" departLane="best" departSpeed="max" departPos="random" type="pas__passenger"/>
    <trip id="pas_54" depart="5327.00" from="-70193392#1" to="-150837238#1" departLane="best" departSpeed="max" departPos="random" type="pas__passenger"/>
    <trip id="pas_55" depart="5340.00" from="150837478#9" to="150837268#8" departLane="best" departSpeed="max" departPos="random" type="pas__passenger"/>
    <trip id="pas_56" depart="5391.00" from="193107812#0" to="259055473#1" departLane="best" departSpeed="max" departPos="random" type="pas__passenger"/>
    <trip id="pas_57" depart="5602.00" from="-150837482#5" to="150837147#0" departLane="best" departSpeed="max" departPos="random" type="pas__passenger"/>
    <trip id="pas_58" depart="5610.00" from="150837195#1" to="150921787#1" departLane="best" departSpeed="max" departPos="random" type="pas__passenger"/>
    <trip id="pas_59" depart="5615.00" from="150837523#4" to="-150837191#1" departLane="best" departSpeed="max" departPos="random" type="pas__passenger"/>
    <trip id="pas_60" depart="5889.00" from="150837203#1" to="-150837479#4" departLane="best" departSpeed="max" departPos="random" type="pas__passenger"/>
    <trip id="pas_61" depart="5922.00" from="-193161028#1" to="378534333#1" departLane="best" departSpeed="max" departPos="random" type="pas__passenger"/>
    <trip id="pas_62" depart="5929.00" from="479688953#1" to="150837198#1" departLane="best" departSpeed="max" departPos="random" type="pas__passenger"/>
    <trip id="pas_63" depart="5929.00" from="479690302#2" to="-150837478#12" departLane="best" departSpeed="max" departPos="random" type="pas__passenger"/>
    <trip id="pas_64" depart="6092.00" from="480079864" to="-150837523#6" departLane="best" departSpeed="max" departPos="random" type="pas__passenger"/>
    <trip id="pas_65" depart="6223.00" from="-150837147#0" to="941745039#8" departLane="best" departSpeed="max" departPos="random" type="pas__passenger"/>
    <trip id="pas_66" depart="6319.00" from="479690293#4" to="331243177" departLane="best" departSpeed="max" departPos="random" type="pas__passenger"/>
    <trip id="pas_67" depart="6527.00" from="-150837193#1" to="-150837444" departLane="best" departSpeed="max" departPos="random" type="pas__passenger"/>
    <trip id="pas_68" depart="6565.00" from="479780488#6" to="673765757#7" departLane="best" departSpeed="max" departPos="random" type="pas__passenger"/>
    <trip id="pas_69" depart="6952.00" from="-150837427#1" to="656052090" departLane="best" departSpeed="max" departPos="random" type="pas__passenger"/>
    <trip id="pas_70" depart="6957.00" from="150837479#0" to="150837379#0" departLane="best" departSpeed="max" departPos="random" type="pas__passenger"/>
    <trip id="pas_71" depart="7048.00" from="-196125607" to="-70193391#0" departLane="best" departSpeed="max" departPos="random" type="pas__passenger"/>
    <trip id="pas_72" depart="7259.00" from="-150921756#1" to="70193388#0" departLane="best" departSpeed="max" departPos="random" type="pas__passenger"/>
    <trip id="pas_73" depart="7316.00" from="662969525" to="150837276#1" departLane="best" departSpeed="max" departPos="random" type="pas__passenger"/>
    <trip id="pas_74" depart="7514.00" from="-690332512#5" to="150837427#2" departLane="best" departSpeed="max" departPos="random" type="pas__passenger"/>
    <trip id="pas_75" depart="7966.00" from="-150837238#6" to="e_t" departLane="best" departSpeed="max" departPos="random" type="pas__passenger"/>
    <trip id="pas_76" depart="7975.00" from="150837129#0" to="150837222" departLane="best" departSpeed="max" departPos="random" type="pas__passenger"/>
    <trip id="pas_77" depart="8009.00" from="601770472#0" to="150812864#8" departLane="best" departSpeed="max" departPos="random" type="pas__passenger"/>
    <trip id="pas_78" depart="8210.00" from="-193107835#2" to="-150837295#1" departLane="best" departSpeed="max" departPos="random" type="pas__passenger"/>
    <trip id="pas_79" depart="8282.00" from="150921720#1" to="-479690295#1" departLane="best" departSpeed="max" departPos="random" type="pas__passenger"/>
    <trip id="pas_80" depart="8355.00" from="-150837200#0" to="-150837198#1" departLane="best" departSpeed="max" departPos="random" type="pas__passenger"/>
    <trip id="pas_81" depart="8449.00" from="-150837482#2" to="259055473#2" departLane="best" departSpeed="max" departPos="random" type="pas__passenger"/>
    <trip id="pas_82" depart="8457.00" from="-259055473#2" to="-150837482#7" departLane="best" departSpeed="max" departPos="random" type="pas__passenger"/>
    <trip id="pas_83" depart="8488.00" from="-378534333#0" to="150837482#7" departLane="best" departSpeed="max" departPos="random" type="pas__passenger"/>
    <trip id="pas_84" depart="8560.00" from="150837523#3" to="-150812864#4" departLane="best" departSpeed="max" departPos="random" type="pas__passenger"/>
    <trip id="pas_85" depart="8582.00" from="150812864#3" to="150837427#2" departLane="best" departSpeed="max" departPos="random" type="pas__passenger"/>
    <trip id="pas_86" depart="8609.00" from="-150837478#2" to="479688953#1" departLane="best" departSpeed="max" departPos="random" type="pas__passenger"/>
    <trip id="pas_87" depart="8672.00" from="-150921480#1" to="-150837077#6" departLane="best" departSpeed="max" departPos="random" type="pas__passenger"/>
    <trip id="pas_88" depart="8696.00" from="-150837295#0" to="-150837198#0" departLane="best" departSpeed="max" departPos="random" type="pas__passenger"/>
    <trip id="pas_89" depart="8740.00" from="257846693#0" to="-150837482#3" departLane="best" departSpeed="max" departPos="random" type="pas__passenger"/>
    <trip id="pas_90" depart="8845.00" from="150837195#0" to="257571789#0" departLane="best" departSpeed="max" departPos="random" type="pas__passenger"/>
    <trip id="pas_91" depart="8870.00" from="-150837199#0" to="150921708#0" departLane="best" departSpeed="max" departPos="random" type="pas__passenger"/>
    <trip id="pas_92" depart="8944.00" from="150921787#1" to="-150837158" departLane="best" departSpeed="max" departPos="random" type="pas__passenger"/>
    <trip id="pas_93" depart="9057.00" from="-602111791" to="-150837276#3" departLane="best" departSpeed="max" departPos="random" type="pas__passenger"/>
    <trip id="pas_94" depart="9083.00" from="-150837077#3" to="150921661#1" departLane="best" departSpeed="max" departPos="random" type="pas__passenger"/>
    <trip id="pas_95" depart="9123.00" from="690332512#5" to="941745039#8" departLane="best" departSpeed="max" departPos="random" type="pas__passenger"/>
    <trip id="pas_96" depart="9243.00" from="-479688691#0" to="150837238#0" departLane="best" departSpeed="max" departPos="random" type="pas__passenger"/>
    <trip id="pas_97" depart="9327.00" from="150837528#5" to="-150837195#0" departLane="best" departSpeed="max" departPos="random" type="pas__passenger"/>
    <trip id="pas_98" depart="9345.00" from="480079864" to="-193107843" departLane="best" departSpeed="max" departPos="random" type="pas__passenger"/>
    <trip id="pas_99" depart="9534.00" from="479690302#2" to="941745039#7" departLane="best" departSpeed="max" departPos="random" type="pas__passenger"/>
    <trip id="pas_100" depart="9535.00" from="-150837478#13" to="-70193392#6" departLane="best" departSpeed="max" departPos="random" type="pas__passenger"/>
    <trip id="pas_101" depart="9537.00" from="941715210#5" to="-150837523#7" departLane="best" departSpeed="max" departPos="random" type="pas__passenger"/>
    <trip id="pas_102" depart="9785.00" from="-602111789" to="-257571789#0" departLane="best" departSpeed="max" departPos="random" type="pas__passenger"/>
    <trip id="pas_103" depart="9816.00" from="150837479#0" to="-70193383#3" departLane="best" departSpeed="max" departPos="random" type="pas__passenger"/>
    <trip id="pas_104" depart="9916.00" from="479690289#2" to="-941715210#5" departLane="best" departSpeed="max" departPos="random" type="pas__passenger"/>
    <trip id="pas_105" depart="10169.00" from="941745039#9" to="-150837268#2" departLane="best" departSpeed="max" departPos="random" type="pas__passenger"/>
    <trip id="pas_106" depart="10305.00" from="150812841#2" to="150837478#2" departLane="best" departSpeed="max" departPos="random" type="pas__passenger"/>
    <trip id="pas_107" depart="10479.00" from="70193392#0" to="150837077#8" departLane="best" departSpeed="max" departPos="random" type="pas__passenger"/>
    <trip id="pas_108" depart="10614.00" from="-150813160#0" to="602111793" departLane="best" departSpeed="max" departPos="random" type="pas__passenger"/>
    <trip id="pas_109" depart="10947.00" from="193638676#0" to="673765757#9" departLane="best" departSpeed="max" departPos="random" type="pas__passenger"/>
    <trip id="pas_110" depart="11078.00" from="257571787" to="150812864#6" departLane="best" departSpeed="max" departPos="random" type="pas__passenger"/>
    <trip id="pas_111" depart="11102.00" from="150837203#0" to="70193388#5" departLane="best" departSpeed="max" departPos="random" type="pas__passenger"/>
    <trip id="pas_112" depart="11206.00" from="-480188362#2" to="150921818#4" departLane="best" departSpeed="max" departPos="random" type="pas__passenger"/>
    <trip id="pas_113" depart="11251.00" from="-150921753#1" to="-70193391#2" departLane="best" departSpeed="max" departPos="random" type="pas__passenger"/>
    <trip id="pas_114" depart="11368.00" from="-70193388#4" to="150837347#0" departLane="best" departSpeed="max" departPos="random" type="pas__passenger"/>
    <trip id="pas_115" depart="11492.00" from="150921477#0" to="150837238#0" departLane="best" departSpeed="max" departPos="random" type="pas__passenger"/>
    <trip id="pas_116" depart="11561.00" from="-150837396#0" to="-150837168" departLane="best" departSpeed="max" departPos="random" type="pas__passenger"/>
    <trip id="pas_117" depart="11648.00" from="-479780488#9" to="150837295#0" departLane="best" departSpeed="max" departPos="random" type="pas__passenger"/>
    <trip id="pas_118" depart="11694.00" from="150837238#1" to="150837195#0" departLane="best" departSpeed="max" departPos="random" type="pas__passenger"/>
    <trip id="pas_119" depart="12150.00" from="479690289#11" to="70193392#1" departLane="best" departSpeed="max" departPos="random" type="pas__passenger"/>
    <trip id="pas_120" depart="12175.00" from="150837407#2" to="-150921703" departLane="best" departSpeed="max" departPos="random" type="pas__passenger"/>
    <trip id="pas_121" depart="12225.00" from="479690025#0" to="-257846693#3" departLane="best" departSpeed="max" departPos="random" type="pas__passenger"/>
    <trip id="pas_122" depart="12276.00" from="-150837482#4" to="150921822#4" departLane="best" departSpeed="max" departPos="random" type="pas__passenger"/>
    <trip id="pas_123" depart="12571.00" from="601770472#1" to="-150837442#1" departLane="best" departSpeed="max" departPos="random" type="pas__passenger"/>
    <trip id="pas_124" depart="12763.00" from="-150837191#1" to="-941715210#1" departLane="best" departSpeed="max" departPos="random" type="pas__passenger"/>
    <trip id="pas_125" depart="12867.00" from="150837465#1" to="150921661#1" departLane="best" departSpeed="max" departPos="random" type="pas__passenger"/>
    <trip id="pas_126" depart="13072.00" from="150837471#0" to="150812841#0" departLane="best" departSpeed="max" departPos="random" type="pas__passenger"/>
    <trip id="pas_127" depart="13171.00" from="150837389#1" to="-941715210#0" departLane="best" departSpeed="max" departPos="random" type="pas__passenger"/>
    <trip id="pas_128" depart="13273.00" from="-257846693#5" to="150837191#0" departLane="best" departSpeed="max" departPos="random" type="pas__passenger"/>
    <trip id="pas_129" depart="13312.00" from="601770472#0" to="-150812864#8" departLane="best" departSpeed="max" departPos="random" type="pas__passenger"/>
    <trip id="pas_130" depart="13386.00" from="-150837077#3" to="-150837396#1" departLane="best" departSpeed="max" departPos="random" type="pas__passenger"/>
    <trip id="pas_131" depart="13387.00" from="-331243177" to="150837172#1" departLane="best" departSpeed="max" departPos="random" type="pas__passenger"/>
    <trip id="pas_132" depart="13479.00" from="150837465#0" to="-666936287" departLane="best" departSpeed="max" departPos="random" type="pas__passenger"/>
    <trip id="pas_133" depart="13554.00" from="941745039#1" to="-70193383#3" departLane="best" departSpeed="max" departPos="random" type="pas__passenger"/>
    <trip id="pas_134" depart="13808.00" from="690332512#8" to="-150837479#3" departLane="best" departSpeed="max" departPos="random" type="pas__passenger"/>
    <trip id="pas_135" depart="13963.00" from="-479780488#1" to="193107812#2" departLane="best" departSpeed="max" departPos="random" type="pas__passenger"/>
    <trip id="pas_136" depart="13973.00" from="-690332521#1" to="479690289#4" departLane="best" departSpeed="max" departPos="random" type="pas__passenger"/>
    <trip id="pas_137" depart="13995.00" from="941715210#5" to="479690281#0" departLane="best" departSpeed="max" departPos="random" type="pas__passenger"/>
    <trip id="pas_138" depart="14005.00" from="150837497#0" to="479690289#2" departLane="best" departSpeed="max" departPos="random" type="pas__passenger"/>
    <trip id="pas_139" depart="14163.00" from="-150837077#7" to="-150837199#0" departLane="best" departSpeed="max" departPos="random" type="pas__passenger"/>
    <trip id="pas_140" depart="14385.00" from="-150837478#3" to="-150837238#1" departLane="best" departSpeed="max" departPos="random" type="pas__passenger"/>
    <trip id="pas_141" depart="14419.00" from="-257571787" to="-150837077#7" departLane="best" departSpeed="max" departPos="random" type="pas__passenger"/>
    <trip id="pas_142" depart="14541.00" from="-150837147#1" to="-941715210#1" departLane="best" departSpeed="max" departPos="random" type="pas__passenger"/>
    <trip id="pas_143" depart="14548.00" from="150837077#0" to="150837478#2" departLane="best" departSpeed="max" departPos="random" type="pas__passenger"/>
    <trip id="pas_144" depart="14866.00" from="-257571793#0" to="479690302#1" departLane="best" departSpeed="max" departPos="random" type="pas__passenger"/>
    <trip id="pas_145" depart="14876.00" from="150837479#2" to="-257846693#1" departLane="best" departSpeed="max" departPos="random" type="pas__passenger"/>
    <trip id="pas_146" depart="14915.00" from="-150813160#0" to="150812864#11" departLane="best" departSpeed="max" departPos="random" type="pas__passenger"/>
    <trip id="pas_147" depart="14917.00" from="150837193#1" to="-150837497#0" departLane="best" departSpeed="max" departPos="random" type="pas__passenger"/>
    <trip id="pas_148" depart="14949.00" from="-150837396#1" to="150921787#1" departLane="best" departSpeed="max" departPos="random" type="pas__passenger"/>
    <trip id="pas_149" depart="15029.00" from="E3" to="150837453#0" departLane="best" departSpeed="max" departPos="random" type="pas__passenger"/>
    <trip id="pas_150" depart="15353.00" from="479690294#1" to="150837238#2" departLane="best" departSpeed="max" departPos="random" type="pas__passenger"/>
    <trip id="pas_151" depart="15539.00" from="-150837482#5" to="150837478#7" departLane="best" departSpeed="max" departPos="random" type="pas__passenger"/>
    <trip id="pas_152" depart="15560.00" from="479690289#4" to="t_n" departLane="best" departSpeed="max" departPos="random" type="pas__passenger"/>
    <trip id="pas_153" depart="15633.00" from="-150837318#2" to="70193383#0" departLane="best" departSpeed="max" departPos="random" type="pas__passenger"/>
    <trip id="pas_154" depart="15719.00" from="150837168" to="-150921708#0" departLane="best" departSpeed="max" departPos="random" type="pas__passenger"/>
    <trip id="pas_155" depart="15748.00" from="-150921753#0" to="-150921708#0" departLane="best" departSpeed="max" departPos="random" type="pas__passenger"/>
    <trip id="pas_156" depart="15807.00" from="-193107812#1" to="150837254#0" departLane="best" departSpeed="max" departPos="random" type="pas__passenger"/>
    <trip id="pas_157" depart="15842.00" from="150921708#0" to="70193392#6" departLane="best" departSpeed="max" departPos="random" type="pas__passenger"/>
    <trip id="pas_158" depart="15866.00" from="150837193#0" to="-150837442#1" departLane="best" departSpeed="max" departPos="random" type="pas__passenger"/>
    <trip id="pas_159" depart="15920.00" from="150921629#0" to="-70193392#6" departLane="best" departSpeed="max" departPos="random" type="pas__passenger"/>
    <trip id="pas_160" depart="15928.00" from="150921818#2" to="941745039#1" departLane="best" departSpeed="max" departPos="random" type="pas__passenger"/>
    <trip id="pas_161" depart="15957.00" from="-70193388#1" to="193107812#0" departLane="best" departSpeed="max" departPos="random" type="pas__passenger"/>
    <trip id="pas_162" depart="16020.00" from="-150837379#2" to="193107842" departLane="best" departSpeed="max" departPos="random" type="pas__passenger"/>
    <trip id="pas_163" depart="16063.00" from="-150837497#1" to="941745039#8" departLane="best" departSpeed="max" departPos="random" type="pas__passenger"/>
    <trip id="pas_164" depart="16313.00" from="-479688691#0" to="-150921480#0" departLane="best" departSpeed="max" departPos="random" type="pas__passenger"/>
    <trip id="pas_165" depart="16744.00" from="150812841#0" to="-150837407#0" departLane="best" departSpeed="max" departPos="random" type="pas__passenger"/>
    <trip id="pas_166" depart="16804.00" from="-196125606#1" to="196125601" departLane="best" departSpeed="max" departPos="random" type="pas__passenger"/>
    <trip id="pas_167" depart="16971.00" from="150921513" to="690332521#0" departLane="best" departSpeed="max" departPos="random" type="pas__passenger"/>
    <trip id="pas_168" depart="16974.00" from="-150837482#7" to="150837254#0" departLane="best" departSpeed="max" departPos="random" type="pas__passenger"/>
    <trip id="pas_169" depart="17148.00" from="257571787" to="-150837347#1" departLane="best" departSpeed="max" departPos="random" type="pas__passenger"/>
    <trip id="pas_170" depart="17374.00" from="-150813160#0" to="941745039#7" departLane="best" departSpeed="max" departPos="random" type="pas__passenger"/>
    <trip id="pas_171" depart="17497.00" from="257846693#7" to="479690289#7" departLane="best" departSpeed="max" departPos="random" type="pas__passenger"/>
    <trip id="pas_172" depart="17682.00" from="-150812864#9" to="-690332512#6" departLane="best" departSpeed="max" departPos="random" type="pas__passenger"/>
    <trip id="pas_173" depart="17719.00" from="-150837379#1" to="193107812#2" departLane="best" departSpeed="max" departPos="random" type="pas__passenger"/>
    <trip id="pas_174" depart="17813.00" from="-672252725" to="480079864" departLane="best" departSpeed="max" departPos="random" type="pas__passenger"/>
    <trip id="pas_175" depart="17841.00" from="150837453#0" to="150837499#8" departLane="best" departSpeed="max" departPos="random" type="pas__passenger"/>
    <trip id="pas_176" depart="17885.00" from="150837442#0" to="-150921787#3" departLane="best" departSpeed="max" departPos="random" type="pas__passenger"/>
    <trip id="pas_177" depart="17935.00" from="-479688691#1" to="479690281#2" departLane="best" departSpeed="max" departPos="random" type="pas__passenger"/>
    <trip id="pas_178" depart="17969.00" from="t_e" to="150837168" departLane="best" departSpeed="max" departPos="random" type="pas__passenger"/>
    <trip id="pas_179" depart="17970.00" from="150812864#10" to="150837077#2" departLane="best" departSpeed="max" departPos="random" type="pas__passenger"/>
    <trip id="pas_180" depart="18017.00" from="-150921720#1" to="479690295#1" departLane="best" departSpeed="max" departPos="random" type="pas__passenger"/>
    <trip id="pas_181" depart="18094.00" from="-257571789#0" to="-690332512#1" departLane="best" departSpeed="max" departPos="random" type="pas__passenger"/>
    <trip id="pas_182" depart="18127.00" from="479690025#1" to="-479780488#2" departLane="best" departSpeed="max" departPos="random" type="pas__passenger"/>
    <trip id="pas_183" depart="18249.00" from="-150837389#0" to="-150812864#6" departLane="best" departSpeed="max" departPos="random" type="pas__passenger"/>
    <trip id="pas_184" depart="18560.00" from="150837453#1" to="-150837482#2" departLane="best" departSpeed="max" departPos="random" type="pas__passenger"/>
    <trip id="pas_185" depart="18580.00" from="479688691#0" to="-193107812#0" departLane="best" departSpeed="max" departPos="random" type="pas__passenger"/>
    <trip id="pas_186" depart="18634.00" from="150837478#10" to="-150812864#7" departLane="best" departSpeed="max" departPos="random" type="pas__passenger"/>
    <trip id="pas_187" depart="18759.00" from="-150813160#1" to="601770472#3" departLane="best" departSpeed="max" departPos="random" type="pas__passenger"/>