<configuration>
    <input>
        <net-file value="osm-new.net.xml"/>
        <route-files value="single-intersection-vhvh2.rou.xml"/>
    </input>
    <time>
        <begin value="0"/>
        <end value="100000"/>
    </time>
</configuration>
