<configuration>
    <input>
        <net-file value="single-intersection-new.net.xml"/>
        <route-files value="osm-17h-18h-real-scenario.passenger.trips.xml"/>
    </input>
    <time>
        <begin value="0"/>
        <end value="3600"/> <!-- 1h = 3600sec simiulation-->
    </time>

    <gui_only>
        <gui-settings-file value="single-intersection.view.xml"/>
    </gui_only>
</configuration>
