<configuration>
    <input>
        <net-file value="single-intersection.net.xml"/>
        <route-files value="single-intersection-vhvh.rou.xml"/>
    </input>
    <time>
        <begin value="0"/>
        <end value="100000"/>
    </time>

    <gui_only>
        <gui-settings-file value="single-intersection.view.xml"/>
    </gui_only>
</configuration>
