<?xml version="1.0" encoding="UTF-8"?>

<!-- generated on 2024-05-07 11:26:31 by Eclipse SUMO netedit Version 1.19.0
-->

<additional xmlns:xsi="http://www.w3.org/2001/XMLSchema-instance" xsi:noNamespaceSchemaLocation="http://sumo.dlr.de/xsd/additional_file.xsd">
    <!-- Detectors -->
    <laneAreaDetector id="e2_0" lane="n_t_1" pos="108.20" length="30.00" period="300.00" file="e2_0.xml"/>
    <laneAreaDetector id="e2_1" lane="n_t_0" pos="108.12" length="30.00" period="300.00" file="e2_1.xml"/>
    <laneAreaDetector id="e2_2" lane="s_t_0" pos="107.97" length="30.00" period="300.00" file="e2_2.xml"/>
    <laneAreaDetector id="e2_3" lane="e_t_0" pos="108.31" length="30.00" period="300.00" file="e2_3.xml"/>
    <laneAreaDetector id="e2_4" lane="s_t_1" pos="107.90" length="30.00" period="300.00" file="e2_4.xml"/>
    <laneAreaDetector id="e2_5" lane="w_t_1" pos="107.98" length="30.00" period="300.00" file="e2_5.xml"/>
    <laneAreaDetector id="e2_6" lane="e_t_1" pos="108.17" length="30.00" period="300.00" file="e2_6.xml"/>
    <laneAreaDetector id="e2_7" lane="w_t_0" pos="108.09" length="30.00" period="300.00" file="e2_7.xml"/>
</additional>
